265

C         -3.24080        2.98910        5.67150
C         -2.35190        2.24460        6.35660
C         -2.80880        0.91300        6.60030
C         -2.13190       -0.12240        7.26190
C         -0.75520        0.04990        7.74090
C          0.23380        0.55420        6.89940
C          1.53220        0.71570        7.34080
C          1.88780        0.38810        8.64440
S          3.50990        0.53760        9.31760
C          4.29530        1.81380        8.27170
C          3.63380        3.16840        8.42830
C          0.89120       -0.13350        9.47040
F          1.20000       -0.47110       10.73770
C         -0.40570       -0.30570        9.04160
C         -2.81800       -1.32060        7.40400
C         -4.11560       -1.53460        6.87710
C         -4.78620       -0.50640        6.19320
C         -6.12850       -0.71280        5.63620
C         -7.13740        0.22490        5.84780
C         -8.41110        0.04090        5.34440
C         -8.72660       -1.09750        4.61150
S        -10.30350       -1.45130        3.91970
C        -11.10840        0.19570        3.89970
C        -12.31530        0.13910        2.98340
C         -7.71420       -2.04020        4.42450
C         -6.43640       -1.86010        4.90280
F         -8.00300       -3.17060        3.74690
C         -4.11230        0.70400        6.08960
S         -4.69670        2.13730        5.28200
C         -4.57070       -2.85450        7.12830
C         -3.66210       -3.63430        7.77690
S         -2.19630       -2.76110        8.17130
C         -3.79600       -5.04220        7.99140
S         -3.06150       -5.94020        9.29590
C         -3.64250       -7.44290        8.68370
C         -4.36320       -7.28190        7.53820
C         -4.45760       -5.90770        7.16140
S         -5.30180       -5.63070        5.65250
C         -5.45920       -7.35950        5.44520
C         -4.95570       -8.13020        6.53830
C         -5.06830       -9.46860        6.30920
S         -5.75760       -9.80180        4.76440
C         -5.91000       -8.10130        4.38460
C         -6.30560       -7.61210        3.10460
C         -6.23330       -8.24190        1.89550
C         -6.47270       -7.37800        0.79520
C         -6.27890       -7.64740       -0.57440
C         -5.98240       -9.00610       -1.04260
C         -4.91770       -9.26660       -1.89970
C         -4.65930      -10.54570       -2.35240
C         -5.46620      -11.61250       -1.97450
S         -5.24730      -13.28680       -2.47560
C         -4.11860      -13.17870       -3.90700
C         -4.77890      -12.54450       -5.11630
C         -6.52250      -11.33950       -1.10280
F         -7.32100      -12.35080       -0.70450
C         -6.78500      -10.07180       -0.63650
C         -6.33190       -6.55820       -1.43440
C         -6.69710       -5.26530       -0.99050
C         -6.94350       -5.00320        0.36290
C         -7.23370       -3.61630        0.77550
C         -8.47890       -3.04620        0.52720
C         -8.71290       -1.72400        0.82900
C         -7.71670       -0.90730        1.36910
S         -8.19600        0.76860        1.64430
C         -6.81400        1.60930        2.49930
C         -7.28640        2.98920        2.90930
C         -6.48030       -1.49370        1.60980
C         -6.23760       -2.82560        1.32820
F         -5.44130       -0.77690        2.11150
C         -6.77400       -6.06020        1.23200
S         -6.78340       -5.93150        2.96470
C         -6.56310       -4.28640       -1.99750
C         -6.05180       -4.76720       -3.16940
S         -5.86820       -6.51140       -3.12430
C         -5.42370       -3.91990       -4.13620
C         -5.42550       -2.55660       -4.05180
C         -4.33990       -1.94650       -4.71600
C         -3.91920       -0.62090       -4.55410
C         -4.60720        0.31720       -3.65420
C         -4.79610       -0.01680       -2.31400
C         -5.37140        0.88280       -1.44190
C         -5.77850        2.14120       -1.87290
S         -6.45110        3.26780       -0.68120
C         -8.01660        3.78050       -1.47710
C         -8.93350        2.59710       -1.71180
C         -5.57030        2.46670       -3.20890
F         -5.92100        3.68230       -3.67780
C         -4.99750        1.57580       -4.09510
C         -2.69110       -0.29740       -5.09880
C         -1.89910       -1.20710       -5.83990
C         -2.35950       -2.52080       -6.06180
C         -1.56280       -3.45560       -6.86300
C         -1.07130       -3.05360       -8.10320
C         -0.32880       -3.90840       -8.89360
C         -0.03520       -5.19800       -8.46480
S          0.88640       -6.39660       -9.36810
C          1.67100       -5.44120      -10.71170
C          2.77870       -4.53630      -10.20600
C         -0.53540       -5.58810       -7.22080
C         -1.28500       -4.74960       -6.42770
F         -0.26890       -6.83100       -6.77170
C         -3.54730       -2.87720       -5.43400
S         -4.19650       -4.49380       -5.25100
C         -0.58000       -0.70600       -6.03410
C         -0.36080        0.49030       -5.42170
S         -1.82260        1.16040       -4.71670
C          0.87180        1.11580       -5.04480
C          1.04690        1.71630       -3.83460
C          2.38500        2.08260       -3.56410
C          2.89020        2.62240       -2.37070
C          2.07180        2.68020       -1.15360
C          2.04750        3.78820       -0.30850
C          1.29840        3.77400        0.85040
C          0.54760        2.65950        1.21980
S         -0.34230        2.71790        2.75060
C         -1.95370        1.91530        2.37310
C         -2.09740        0.54440        3.00130
C          0.59770        1.55280        0.37800
F         -0.06750        0.41830        0.68370
C          1.33400        1.55660       -0.78730
C          4.22900        2.97640       -2.38270
C          5.08170        2.77200       -3.49760
C          4.58370        2.16290       -4.66430
C          5.45360        1.89860       -5.81630
C          5.50060        0.63870       -6.40480
C          6.32780        0.38120       -7.48080
C          7.14160        1.37710       -8.00820
S          8.23230        1.19190       -9.37890
C          8.38360       -0.61540       -9.59130
C          9.16890       -1.26460       -8.46750
C          7.06870        2.64200       -7.42080
C          6.24990        2.91170       -6.34820
F          7.82890        3.63900       -7.91760
C          3.23930        1.81760       -4.66100
S          2.36330        1.02660       -5.95640
C          6.41860        3.15980       -3.21050
C          6.58720        3.64080       -1.94770
S          5.09320        3.64010       -1.02830
C          7.75570        4.13980       -1.30100
C          7.81440        4.55670       -0.00580
C          9.08530        5.04310        0.38260
C          9.46510        5.51590        1.64850
C          8.46340        5.60740        2.71770
C          8.66350        5.02060        3.96490
C          7.65540        5.01770        4.90650
C          6.42200        5.61360        4.65210
S          5.19520        5.54060        5.92430
C          3.62520        5.23310        5.02740
C          3.66410        3.95030        4.22160
C          6.26380        6.26270        3.43190
F          5.12170        6.92370        3.14010
C          7.25300        6.25040        2.47130
C         10.79680        5.86820        1.80120
C         11.74050        5.78940        0.74670
C         11.35670        5.32010       -0.51980
C         12.31430        5.19340       -1.62500
C         12.02930        5.71690       -2.88190
C         12.91530        5.58230       -3.93360
C         14.11990        4.90820       -3.76560
S         15.33260        4.65590       -5.01270
C         14.55640        5.36270       -6.51400
C         15.48270        5.12890       -7.69260
C         14.39270        4.38770       -2.49790
C         13.52150        4.52010       -1.44170
F         15.55100        3.72490       -2.29990
C         10.02450        4.96320       -0.67270
S          9.29310        4.31340       -2.12290
C         13.01770        6.27840        1.15490
C         13.03960        6.68570        2.43980
S         11.52050        6.51250        3.25110
H         -3.14660        4.01200        5.36320
H         -1.40210        2.61530        6.69570
H         -0.00550        0.79980        5.87560
H          2.27220        1.09170        6.65270
H          4.30280        1.46900        7.23840
H          5.32230        1.83950        8.63510
H          4.18710        3.91650        7.86430
H          2.60650        3.14400        8.06950
H          3.62510        3.46150        9.47540
H         -1.13850       -0.69210        9.73220
H         -6.93220        1.10610        6.43590
H         -9.16400        0.78700        5.53870
H        -10.37400        0.90880        3.52650
H        -11.40480        0.44700        4.91830
H        -12.81010        1.10780        2.96530
H        -12.00870       -0.11460        1.97170
H        -13.02490       -0.60940        3.32840
H         -5.68700       -2.60260        4.67890
H         -5.55010       -3.20750        6.86430
H         -3.40460       -8.34950        9.20210
H         -4.78070      -10.28220        6.94360
H         -5.93930       -9.27160        1.79550
H         -4.26270       -8.46430       -2.20120
H         -3.81300      -10.70340       -3.00070
H         -3.21450      -12.65360       -3.60180
H         -3.86320      -14.21970       -4.10580
H         -5.65980      -13.11360       -5.40390
H         -4.08300      -12.53210       -5.95290
H         -5.08500      -11.52210       -4.90470
H         -7.62820       -9.91520        0.01800
H         -9.26620       -3.64890        0.10180
H         -9.68190       -1.28670        0.64560
H         -6.54240        1.01300        3.36790
H         -5.97580        1.68120        1.80840
H         -8.15310        2.92070        3.56290
H         -6.48850        3.49940        3.44240
H         -7.55080        3.57440        2.03190
H         -5.25760       -3.22800        1.53440
H         -6.74620       -3.24580       -1.80460
H         -6.13050       -1.99820       -3.46550
H         -4.46690       -0.97910       -1.95150
H         -5.50550        0.62230       -0.40420
H         -8.45130        4.48130       -0.76460
H         -7.78340        4.31060       -2.39830
H         -9.10970        2.06260       -0.78040
H         -9.88690        2.94350       -2.10550
H         -8.49480        1.90510       -2.42930
H         -4.85340        1.87590       -5.12140
H         -1.29460       -2.06120       -8.46550
H          0.01210       -3.56040       -9.85510
H          2.07190       -6.21200      -11.37000
H          0.89800       -4.89500      -11.25070
H          3.24180       -4.01580      -11.04230
H          2.39280       -3.79750       -9.50680
H          3.53870       -5.12490       -9.69740
H         -1.62220       -5.10510       -5.46770
H          0.20530       -1.26890       -6.50690
H          0.23880        1.87570       -3.14410
H          2.59840        4.67730       -0.57190
H          1.27950        4.64000        1.49370
H         -2.69810        2.60370        2.77450
H         -2.05210        1.88110        1.29030
H         -1.37280       -0.15240        2.59010
H         -1.95250        0.60060        4.07750
H         -3.09720        0.16210        2.80640
H          1.35760        0.65700       -1.38280
H          4.89610       -0.16060       -6.00430
H          6.32930       -0.60840       -7.90760
H          7.38670       -1.03950       -9.70450
H          8.91130       -0.71480      -10.53990
H          9.26750       -2.33240       -8.65360
H          8.67290       -1.12300       -7.50960
H         10.16340       -0.82930       -8.40530
H          6.22110        3.91270       -5.94710
H          7.23370        3.06700       -3.90540
H          6.97030        4.49540        0.65720
H          9.59970        4.53040        4.18180
H          7.80250        4.53660        5.86090
H          2.89140        5.16940        5.83100
H          3.39580        6.09720        4.40860
H          2.67460        3.73780        3.82040
H          4.36130        4.03220        3.38970
H          3.97300        3.11630        4.84830
H          7.07810        6.76690        1.54000
H         11.10820        6.25670       -3.03920
H         12.65770        6.00980       -4.88830
H         13.60010        4.86200       -6.66460
H         14.40300        6.42890       -6.34600
H         16.44380        5.60870       -7.52310
H         15.04030        5.54110       -8.59700
H         15.65050        4.06460       -7.83920
H         13.77360        4.07510       -0.49180
H         13.86670        6.33380        0.49840
H         13.86750        7.09110        2.98800
