
  xtb     03042204383D
 energy: -406.234195113360 gnorm: 0.000327136702 xtb: 6.4.1 (unknown)
228253  0     0  0            999 V2000
    1.0862   -2.1727   -1.3658 C   0  0  0  0  0  0  0  0  0  0  0  0
    1.2812   -1.2679   -0.3874 C   0  0  0  0  0  0  0  0  0  0  0  0
    0.4094   -1.4478    0.7296 C   0  0  0  0  0  0  0  0  0  0  0  0
    0.3266   -0.6787    1.9050 C   0  0  0  0  0  0  0  0  0  0  0  0
    1.1571    0.5159    2.1082 C   0  0  0  0  0  0  0  0  0  0  0  0
    1.7389    0.7854    3.3468 C   0  0  0  0  0  0  0  0  0  0  0  0
    2.4792    1.9295    3.5708 C   0  0  0  0  0  0  0  0  0  0  0  0
    2.6961    2.8468    2.5497 C   0  0  0  0  0  0  0  0  0  0  0  0
    3.5260    4.3935    2.6855 S   0  0  0  0  0  0  0  0  0  0  0  0
    4.3064    4.3525    4.3345 C   0  0  0  0  0  0  0  0  0  0  0  0
    5.5379    3.4683    4.3547 C   0  0  0  0  0  0  0  0  0  0  0  0
    2.1664    2.5363    1.2983 C   0  0  0  0  0  0  0  0  0  0  0  0
    2.4076    3.3816    0.2723 F   0  0  0  0  0  0  0  0  0  0  0  0
    1.4022    1.4154    1.0696 C   0  0  0  0  0  0  0  0  0  0  0  0
   -0.5585   -1.1402    2.8752 C   0  0  0  0  0  0  0  0  0  0  0  0
   -1.2814   -2.3547    2.7575 C   0  0  0  0  0  0  0  0  0  0  0  0
   -1.2260   -3.1027    1.5658 C   0  0  0  0  0  0  0  0  0  0  0  0
   -1.9409   -4.3797    1.4707 C   0  0  0  0  0  0  0  0  0  0  0  0
   -3.2097   -4.5289    2.0328 C   0  0  0  0  0  0  0  0  0  0  0  0
   -3.8086   -5.7644    2.1116 C   0  0  0  0  0  0  0  0  0  0  0  0
   -3.2109   -6.9058    1.5816 C   0  0  0  0  0  0  0  0  0  0  0  0
   -4.0665   -8.4284    1.8497 S   0  0  0  0  0  0  0  0  0  0  0  0
   -3.7076   -9.4561    0.3802 C   0  0  0  0  0  0  0  0  0  0  0  0
   -4.1829   -8.8013   -0.9000 C   0  0  0  0  0  0  0  0  0  0  0  0
   -1.9727   -6.7372    0.9702 C   0  0  0  0  0  0  0  0  0  0  0  0
   -1.3407   -5.5104    0.9209 C   0  0  0  0  0  0  0  0  0  0  0  0
   -1.3146   -7.7878    0.4298 F   0  0  0  0  0  0  0  0  0  0  0  0
   -0.4013   -2.5990    0.5666 C   0  0  0  0  0  0  0  0  0  0  0  0
   -0.1650   -3.3109   -1.0107 S   0  0  0  0  0  0  0  0  0  0  0  0
   -1.9632   -2.6814    3.9597 C   0  0  0  0  0  0  0  0  0  0  0  0
   -1.8727   -1.7230    4.9231 C   0  0  0  0  0  0  0  0  0  0  0  0
   -0.9040   -0.3609    4.4014 S   0  0  0  0  0  0  0  0  0  0  0  0
   -2.4251   -1.7675    6.2362 C   0  0  0  0  0  0  0  0  0  0  0  0
   -2.2318   -0.4208    7.3343 S   0  0  0  0  0  0  0  0  0  0  0  0
   -3.0682   -1.2278    8.5990 C   0  0  0  0  0  0  0  0  0  0  0  0
   -3.4811   -2.4672    8.2137 C   0  0  0  0  0  0  0  0  0  0  0  0
   -3.1217   -2.7712    6.8649 C   0  0  0  0  0  0  0  0  0  0  0  0
   -3.6792   -4.3545    6.3402 S   0  0  0  0  0  0  0  0  0  0  0  0
   -4.4234   -4.6219    7.9104 C   0  0  0  0  0  0  0  0  0  0  0  0
   -4.1998   -3.5469    8.8275 C   0  0  0  0  0  0  0  0  0  0  0  0
   -4.7029   -3.8020   10.0659 C   0  0  0  0  0  0  0  0  0  0  0  0
   -5.4592   -5.3436   10.1369 S   0  0  0  0  0  0  0  0  0  0  0  0
   -5.1126   -5.6770    8.4507 C   0  0  0  0  0  0  0  0  0  0  0  0
   -5.6198   -6.8691    7.8461 C   0  0  0  0  0  0  0  0  0  0  0  0
   -5.8068   -8.3563    8.7525 S   0  0  0  0  0  0  0  0  0  0  0  0
   -6.5242   -9.1701    7.4150 C   0  0  0  0  0  0  0  0  0  0  0  0
   -6.6248   -8.3609    6.3249 C   0  0  0  0  0  0  0  0  0  0  0  0
   -6.1014   -7.0537    6.5788 C   0  0  0  0  0  0  0  0  0  0  0  0
   -6.2911   -5.9431    5.2441 S   0  0  0  0  0  0  0  0  0  0  0  0
   -7.0402   -7.2156    4.3045 C   0  0  0  0  0  0  0  0  0  0  0  0
   -7.1503   -8.4612    4.9897 C   0  0  0  0  0  0  0  0  0  0  0  0
   -7.6771   -9.4304    4.1892 C   0  0  0  0  0  0  0  0  0  0  0  0
   -8.0251   -8.8417    2.6075 S   0  0  0  0  0  0  0  0  0  0  0  0
   -7.4661   -7.2383    3.0016 C   0  0  0  0  0  0  0  0  0  0  0  0
   -7.2769   -6.1568    2.0868 C   0  0  0  0  0  0  0  0  0  0  0  0
   -7.1788   -4.8454    2.4507 C   0  0  0  0  0  0  0  0  0  0  0  0
   -6.5360   -4.0330    1.4827 C   0  0  0  0  0  0  0  0  0  0  0  0
   -6.0632   -2.7205    1.6456 C   0  0  0  0  0  0  0  0  0  0  0  0
   -6.1911   -1.9660    2.8999 C   0  0  0  0  0  0  0  0  0  0  0  0
   -5.8673   -2.5516    4.1234 C   0  0  0  0  0  0  0  0  0  0  0  0
   -5.8808   -1.8098    5.2829 C   0  0  0  0  0  0  0  0  0  0  0  0
   -6.1842   -0.4516    5.2746 C   0  0  0  0  0  0  0  0  0  0  0  0
   -6.0968    0.4111    6.8126 S   0  0  0  0  0  0  0  0  0  0  0  0
   -5.4298    2.0527    6.3207 C   0  0  0  0  0  0  0  0  0  0  0  0
   -4.6791    2.6535    7.4921 C   0  0  0  0  0  0  0  0  0  0  0  0
   -6.5472    0.1132    4.0556 C   0  0  0  0  0  0  0  0  0  0  0  0
   -6.9223    1.4087    3.9814 F   0  0  0  0  0  0  0  0  0  0  0  0
   -6.5477   -0.6204    2.8861 C   0  0  0  0  0  0  0  0  0  0  0  0
   -5.3012   -2.2064    0.6052 C   0  0  0  0  0  0  0  0  0  0  0  0
   -4.9673   -2.9506   -0.5509 C   0  0  0  0  0  0  0  0  0  0  0  0
   -5.4104   -4.2754   -0.6963 C   0  0  0  0  0  0  0  0  0  0  0  0
   -4.9001   -5.1094   -1.7895 C   0  0  0  0  0  0  0  0  0  0  0  0
   -5.7324   -5.8748   -2.6023 C   0  0  0  0  0  0  0  0  0  0  0  0
   -5.2045   -6.6256   -3.6308 C   0  0  0  0  0  0  0  0  0  0  0  0
   -3.8343   -6.6478   -3.8980 C   0  0  0  0  0  0  0  0  0  0  0  0
   -3.3364   -7.5839   -5.3099 S   0  0  0  0  0  0  0  0  0  0  0  0
   -1.5892   -8.0559   -5.0369 C   0  0  0  0  0  0  0  0  0  0  0  0
   -1.4159   -8.9524   -3.8277 C   0  0  0  0  0  0  0  0  0  0  0  0
   -3.0140   -5.8891   -3.0676 C   0  0  0  0  0  0  0  0  0  0  0  0
   -3.5287   -5.1461   -2.0249 C   0  0  0  0  0  0  0  0  0  0  0  0
   -1.6767   -5.8429   -3.2420 F   0  0  0  0  0  0  0  0  0  0  0  0
   -6.2142   -4.7725    0.3145 C   0  0  0  0  0  0  0  0  0  0  0  0
   -6.7461   -6.4286    0.4384 S   0  0  0  0  0  0  0  0  0  0  0  0
   -4.1017   -2.2333   -1.4103 C   0  0  0  0  0  0  0  0  0  0  0  0
   -3.7277   -1.0202   -0.9141 C   0  0  0  0  0  0  0  0  0  0  0  0
   -4.4721   -0.6729    0.6295 S   0  0  0  0  0  0  0  0  0  0  0  0
   -2.7724   -0.1260   -1.4771 C   0  0  0  0  0  0  0  0  0  0  0  0
   -2.0461   -0.3134   -2.6152 C   0  0  0  0  0  0  0  0  0  0  0  0
   -1.0449    0.6661   -2.8166 C   0  0  0  0  0  0  0  0  0  0  0  0
   -0.0962    0.7136   -3.8533 C   0  0  0  0  0  0  0  0  0  0  0  0
   -0.0846   -0.2776   -4.9364 C   0  0  0  0  0  0  0  0  0  0  0  0
   -0.0078    0.1214   -6.2708 C   0  0  0  0  0  0  0  0  0  0  0  0
   -0.0455   -0.8083   -7.2868 C   0  0  0  0  0  0  0  0  0  0  0  0
   -0.1312   -2.1773   -7.0270 C   0  0  0  0  0  0  0  0  0  0  0  0
   -0.1495   -3.2494   -8.4286 S   0  0  0  0  0  0  0  0  0  0  0  0
   -1.0593   -4.7495   -7.8998 C   0  0  0  0  0  0  0  0  0  0  0  0
   -2.4734   -4.4471   -7.4480 C   0  0  0  0  0  0  0  0  0  0  0  0
   -0.1482   -2.5632   -5.6905 C   0  0  0  0  0  0  0  0  0  0  0  0
   -0.1595   -3.8677   -5.3355 F   0  0  0  0  0  0  0  0  0  0  0  0
   -0.1506   -1.6402   -4.6650 C   0  0  0  0  0  0  0  0  0  0  0  0
    0.8436    1.7293   -3.7715 C   0  0  0  0  0  0  0  0  0  0  0  0
    0.8336    2.7132   -2.7509 C   0  0  0  0  0  0  0  0  0  0  0  0
   -0.1921    2.7417   -1.7825 C   0  0  0  0  0  0  0  0  0  0  0  0
   -0.2643    3.8392   -0.8127 C   0  0  0  0  0  0  0  0  0  0  0  0
    0.0360    5.1464   -1.2082 C   0  0  0  0  0  0  0  0  0  0  0  0
    0.1061    6.1689   -0.2899 C   0  0  0  0  0  0  0  0  0  0  0  0
   -0.1323    5.9457    1.0661 C   0  0  0  0  0  0  0  0  0  0  0  0
    0.0427    7.3173    2.1607 S   0  0  0  0  0  0  0  0  0  0  0  0
    0.5862    6.5471    3.7385 C   0  0  0  0  0  0  0  0  0  0  0  0
    1.2953    7.5906    4.5785 C   0  0  0  0  0  0  0  0  0  0  0  0
   -0.5301    4.6655    1.4330 C   0  0  0  0  0  0  0  0  0  0  0  0
   -0.5978    3.6312    0.5230 C   0  0  0  0  0  0  0  0  0  0  0  0
   -0.8574    4.3754    2.7140 F   0  0  0  0  0  0  0  0  0  0  0  0
   -1.0679    1.6631   -1.8058 C   0  0  0  0  0  0  0  0  0  0  0  0
   -2.3123    1.3285   -0.6294 S   0  0  0  0  0  0  0  0  0  0  0  0
    2.0000    3.5143   -2.7930 C   0  0  0  0  0  0  0  0  0  0  0  0
    2.8585    3.1888   -3.7997 C   0  0  0  0  0  0  0  0  0  0  0  0
    2.2455    1.8894   -4.8031 S   0  0  0  0  0  0  0  0  0  0  0  0
    4.1500    3.7583   -4.0059 C   0  0  0  0  0  0  0  0  0  0  0  0
    5.0228    3.5914   -5.0383 C   0  0  0  0  0  0  0  0  0  0  0  0
    6.2480    4.2902   -4.8617 C   0  0  0  0  0  0  0  0  0  0  0  0
    7.3460    4.3775   -5.7334 C   0  0  0  0  0  0  0  0  0  0  0  0
    7.3864    3.6330   -6.9969 C   0  0  0  0  0  0  0  0  0  0  0  0
    7.7150    4.2652   -8.1921 C   0  0  0  0  0  0  0  0  0  0  0  0
    7.7715    3.5640   -9.3807 C   0  0  0  0  0  0  0  0  0  0  0  0
    7.5155    2.1981   -9.4149 C   0  0  0  0  0  0  0  0  0  0  0  0
    7.5457    1.1894  -10.8588 S   0  0  0  0  0  0  0  0  0  0  0  0
    8.4866    2.1802  -12.0702 C   0  0  0  0  0  0  0  0  0  0  0  0
    9.9495    2.3130  -11.6922 C   0  0  0  0  0  0  0  0  0  0  0  0
    7.1789    1.5782   -8.2099 C   0  0  0  0  0  0  0  0  0  0  0  0
    6.9194    0.2554   -8.2042 F   0  0  0  0  0  0  0  0  0  0  0  0
    7.1096    2.2669   -7.0204 C   0  0  0  0  0  0  0  0  0  0  0  0
    8.3982    5.1915   -5.3322 C   0  0  0  0  0  0  0  0  0  0  0  0
    8.4197    5.8908   -4.1010 C   0  0  0  0  0  0  0  0  0  0  0  0
    7.3330    5.7914   -3.2259 C   0  0  0  0  0  0  0  0  0  0  0  0
    7.2573    6.4872   -1.9334 C   0  0  0  0  0  0  0  0  0  0  0  0
    7.3753    7.8713   -1.8436 C   0  0  0  0  0  0  0  0  0  0  0  0
    7.1459    8.5154   -0.6439 C   0  0  0  0  0  0  0  0  0  0  0  0
    6.8162    7.7996    0.5009 C   0  0  0  0  0  0  0  0  0  0  0  0
    6.4347    8.6720    1.9978 S   0  0  0  0  0  0  0  0  0  0  0  0
    4.7655    7.9983    2.3480 C   0  0  0  0  0  0  0  0  0  0  0  0
    3.7815    8.3054    1.2377 C   0  0  0  0  0  0  0  0  0  0  0  0
    6.7893    6.4117    0.4170 C   0  0  0  0  0  0  0  0  0  0  0  0
    6.9820    5.7570   -0.7807 C   0  0  0  0  0  0  0  0  0  0  0  0
    6.5663    5.6666    1.5194 F   0  0  0  0  0  0  0  0  0  0  0  0
    6.2721    4.9984   -3.6360 C   0  0  0  0  0  0  0  0  0  0  0  0
    4.7917    4.7928   -2.7438 S   0  0  0  0  0  0  0  0  0  0  0  0
    9.6441    6.5984   -3.9125 C   0  0  0  0  0  0  0  0  0  0  0  0
   10.4986    6.4485   -4.9438 C   0  0  0  0  0  0  0  0  0  0  0  0
    9.8853    5.4430   -6.2130 S   0  0  0  0  0  0  0  0  0  0  0  0
    1.6263   -2.2643   -2.2880 H   0  0  0  0  0  0  0  0  0  0  0  0
    2.0488   -0.5187   -0.4368 H   0  0  0  0  0  0  0  0  0  0  0  0
    1.6251    0.0830    4.1570 H   0  0  0  0  0  0  0  0  0  0  0  0
    2.8836    2.0980    4.5555 H   0  0  0  0  0  0  0  0  0  0  0  0
    4.5759    5.3922    4.5210 H   0  0  0  0  0  0  0  0  0  0  0  0
    3.5561    4.0522    5.0650 H   0  0  0  0  0  0  0  0  0  0  0  0
    5.2836    2.4370    4.1182 H   0  0  0  0  0  0  0  0  0  0  0  0
    5.9988    3.4969    5.3401 H   0  0  0  0  0  0  0  0  0  0  0  0
    6.2582    3.8233    3.6215 H   0  0  0  0  0  0  0  0  0  0  0  0
    0.9798    1.2724    0.0887 H   0  0  0  0  0  0  0  0  0  0  0  0
   -3.7341   -3.6645    2.4043 H   0  0  0  0  0  0  0  0  0  0  0  0
   -4.7548   -5.8735    2.6149 H   0  0  0  0  0  0  0  0  0  0  0  0
   -2.6430   -9.6788    0.3569 H   0  0  0  0  0  0  0  0  0  0  0  0
   -4.2591  -10.3749    0.5805 H   0  0  0  0  0  0  0  0  0  0  0  0
   -5.2463   -8.5790   -0.8472 H   0  0  0  0  0  0  0  0  0  0  0  0
   -3.6509   -7.8692   -1.0788 H   0  0  0  0  0  0  0  0  0  0  0  0
   -4.0057   -9.4677   -1.7414 H   0  0  0  0  0  0  0  0  0  0  0  0
   -0.3548   -5.4703    0.4854 H   0  0  0  0  0  0  0  0  0  0  0  0
   -2.4686   -3.6130    4.1283 H   0  0  0  0  0  0  0  0  0  0  0  0
   -3.2112   -0.7409    9.5418 H   0  0  0  0  0  0  0  0  0  0  0  0
   -4.6742   -3.1820   10.9385 H   0  0  0  0  0  0  0  0  0  0  0  0
   -6.8299  -10.1911    7.5206 H   0  0  0  0  0  0  0  0  0  0  0  0
   -7.8743  -10.4567    4.4235 H   0  0  0  0  0  0  0  0  0  0  0  0
   -7.5278   -4.4748    3.3966 H   0  0  0  0  0  0  0  0  0  0  0  0
   -5.5617   -3.5842    4.1644 H   0  0  0  0  0  0  0  0  0  0  0  0
   -5.6414   -2.2687    6.2278 H   0  0  0  0  0  0  0  0  0  0  0  0
   -6.2641    2.6844    6.0194 H   0  0  0  0  0  0  0  0  0  0  0  0
   -4.7660    1.8866    5.4735 H   0  0  0  0  0  0  0  0  0  0  0  0
   -5.3370    2.7653    8.3511 H   0  0  0  0  0  0  0  0  0  0  0  0
   -4.2960    3.6332    7.2152 H   0  0  0  0  0  0  0  0  0  0  0  0
   -3.8418    2.0188    7.7744 H   0  0  0  0  0  0  0  0  0  0  0  0
   -6.8479   -0.1308    1.9727 H   0  0  0  0  0  0  0  0  0  0  0  0
   -6.7987   -5.8670   -2.4368 H   0  0  0  0  0  0  0  0  0  0  0  0
   -5.8528   -7.2102   -4.2649 H   0  0  0  0  0  0  0  0  0  0  0  0
   -0.9847   -7.1546   -4.9704 H   0  0  0  0  0  0  0  0  0  0  0  0
   -1.3377   -8.5862   -5.9562 H   0  0  0  0  0  0  0  0  0  0  0  0
   -1.6476   -8.4204   -2.9083 H   0  0  0  0  0  0  0  0  0  0  0  0
   -2.0650   -9.8230   -3.9011 H   0  0  0  0  0  0  0  0  0  0  0  0
   -0.3834   -9.2906   -3.7719 H   0  0  0  0  0  0  0  0  0  0  0  0
   -2.8403   -4.6030   -1.3954 H   0  0  0  0  0  0  0  0  0  0  0  0
   -3.7689   -2.6083   -2.3598 H   0  0  0  0  0  0  0  0  0  0  0  0
   -2.2173   -1.1329   -3.2865 H   0  0  0  0  0  0  0  0  0  0  0  0
    0.0475    1.1716   -6.5124 H   0  0  0  0  0  0  0  0  0  0  0  0
   -0.0110   -0.4892   -8.3168 H   0  0  0  0  0  0  0  0  0  0  0  0
   -0.4839   -5.2593   -7.1307 H   0  0  0  0  0  0  0  0  0  0  0  0
   -1.0611   -5.3605   -8.8028 H   0  0  0  0  0  0  0  0  0  0  0  0
   -3.0176   -3.9139   -8.2246 H   0  0  0  0  0  0  0  0  0  0  0  0
   -2.9931   -5.3786   -7.2313 H   0  0  0  0  0  0  0  0  0  0  0  0
   -2.4746   -3.8394   -6.5457 H   0  0  0  0  0  0  0  0  0  0  0  0
   -0.1714   -2.0091   -3.6528 H   0  0  0  0  0  0  0  0  0  0  0  0
    0.2143    5.3608   -2.2503 H   0  0  0  0  0  0  0  0  0  0  0  0
    0.3671    7.1674   -0.6046 H   0  0  0  0  0  0  0  0  0  0  0  0
    1.2574    5.7308    3.4754 H   0  0  0  0  0  0  0  0  0  0  0  0
   -0.2913    6.1592    4.2533 H   0  0  0  0  0  0  0  0  0  0  0  0
    1.6198    7.1465    5.5173 H   0  0  0  0  0  0  0  0  0  0  0  0
    0.6292    8.4218    4.7987 H   0  0  0  0  0  0  0  0  0  0  0  0
    2.1658    7.9759    4.0531 H   0  0  0  0  0  0  0  0  0  0  0  0
   -0.8812    2.6624    0.8999 H   0  0  0  0  0  0  0  0  0  0  0  0
    2.2349    4.2618   -2.0579 H   0  0  0  0  0  0  0  0  0  0  0  0
    4.7872    3.0032   -5.9072 H   0  0  0  0  0  0  0  0  0  0  0  0
    7.9081    5.3269   -8.1989 H   0  0  0  0  0  0  0  0  0  0  0  0
    8.0110    4.0968  -10.2864 H   0  0  0  0  0  0  0  0  0  0  0  0
    8.3747    1.6179  -12.9972 H   0  0  0  0  0  0  0  0  0  0  0  0
    7.9973    3.1459  -12.1910 H   0  0  0  0  0  0  0  0  0  0  0  0
   10.4038    1.3290  -11.6037 H   0  0  0  0  0  0  0  0  0  0  0  0
   10.4806    2.8744  -12.4585 H   0  0  0  0  0  0  0  0  0  0  0  0
   10.0627    2.8295  -10.7412 H   0  0  0  0  0  0  0  0  0  0  0  0
    6.8707    1.7304   -6.1156 H   0  0  0  0  0  0  0  0  0  0  0  0
    7.5989    8.4462   -2.7295 H   0  0  0  0  0  0  0  0  0  0  0  0
    7.1968    9.5913   -0.5808 H   0  0  0  0  0  0  0  0  0  0  0  0
    4.8512    6.9269    2.5164 H   0  0  0  0  0  0  0  0  0  0  0  0
    4.4836    8.4895    3.2795 H   0  0  0  0  0  0  0  0  0  0  0  0
    3.7266    9.3773    1.0596 H   0  0  0  0  0  0  0  0  0  0  0  0
    4.0780    7.8118    0.3137 H   0  0  0  0  0  0  0  0  0  0  0  0
    2.7920    7.9455    1.5121 H   0  0  0  0  0  0  0  0  0  0  0  0
    6.9265    4.6800   -0.8034 H   0  0  0  0  0  0  0  0  0  0  0  0
    9.8590    7.1766   -3.0321 H   0  0  0  0  0  0  0  0  0  0  0  0
   11.4781    6.8705   -5.0566 H   0  0  0  0  0  0  0  0  0  0  0  0
  1  2  2  0  0  0  0
  2  3  1  0  0  0  0
  3  4  2  0  0  0  0
  4  5  1  0  0  0  0
  5  6  2  0  0  0  0
  6  7  1  0  0  0  0
  7  8  2  0  0  0  0
  8  9  1  0  0  0  0
  9 10  1  0  0  0  0
 10 11  1  0  0  0  0
  8 12  1  0  0  0  0
 12 13  1  0  0  0  0
 12 14  2  0  0  0  0
  4 15  1  0  0  0  0
 15 16  2  0  0  0  0
 16 17  1  0  0  0  0
 17 18  1  0  0  0  0
 18 19  2  0  0  0  0
 19 20  1  0  0  0  0
 20 21  2  0  0  0  0
 21 22  1  0  0  0  0
 22 23  1  0  0  0  0
 23 24  1  0  0  0  0
 21 25  1  0  0  0  0
 25 26  2  0  0  0  0
 25 27  1  0  0  0  0
 17 28  2  0  0  0  0
 28 29  1  0  0  0  0
 16 30  1  0  0  0  0
 30 31  2  0  0  0  0
 31 32  1  0  0  0  0
 31 33  1  0  0  0  0
 33 34  1  0  0  0  0
 34 35  1  0  0  0  0
 35 36  2  0  0  0  0
 36 37  1  0  0  0  0
 37 38  1  0  0  0  0
 38 39  1  0  0  0  0
 39 40  1  0  0  0  0
 40 41  2  0  0  0  0
 41 42  1  0  0  0  0
 42 43  1  0  0  0  0
 43 44  1  0  0  0  0
 44 45  1  0  0  0  0
 45 46  1  0  0  0  0
 46 47  2  0  0  0  0
 47 48  1  0  0  0  0
 48 49  1  0  0  0  0
 49 50  1  0  0  0  0
 50 51  1  0  0  0  0
 51 52  2  0  0  0  0
 52 53  1  0  0  0  0
 53 54  1  0  0  0  0
 54 55  1  0  0  0  0
 55 56  2  0  0  0  0
 56 57  1  0  0  0  0
 57 58  2  0  0  0  0
 58 59  1  0  0  0  0
 59 60  2  0  0  0  0
 60 61  1  0  0  0  0
 61 62  2  0  0  0  0
 62 63  1  0  0  0  0
 63 64  1  0  0  0  0
 64 65  1  0  0  0  0
 62 66  1  0  0  0  0
 66 67  1  0  0  0  0
 66 68  2  0  0  0  0
 58 69  1  0  0  0  0
 69 70  2  0  0  0  0
 70 71  1  0  0  0  0
 71 72  1  0  0  0  0
 72 73  2  0  0  0  0
 73 74  1  0  0  0  0
 74 75  2  0  0  0  0
 75 76  1  0  0  0  0
 76 77  1  0  0  0  0
 77 78  1  0  0  0  0
 75 79  1  0  0  0  0
 79 80  2  0  0  0  0
 79 81  1  0  0  0  0
 71 82  2  0  0  0  0
 82 83  1  0  0  0  0
 70 84  1  0  0  0  0
 84 85  2  0  0  0  0
 85 86  1  0  0  0  0
 85 87  1  0  0  0  0
 87 88  2  0  0  0  0
 88 89  1  0  0  0  0
 89 90  2  0  0  0  0
 90 91  1  0  0  0  0
 91 92  2  0  0  0  0
 92 93  1  0  0  0  0
 93 94  2  0  0  0  0
 94 95  1  0  0  0  0
 95 96  1  0  0  0  0
 96 97  1  0  0  0  0
 94 98  1  0  0  0  0
 98 99  1  0  0  0  0
 98100  2  0  0  0  0
 90101  1  0  0  0  0
101102  2  0  0  0  0
102103  1  0  0  0  0
103104  1  0  0  0  0
104105  2  0  0  0  0
105106  1  0  0  0  0
106107  2  0  0  0  0
107108  1  0  0  0  0
108109  1  0  0  0  0
109110  1  0  0  0  0
107111  1  0  0  0  0
111112  2  0  0  0  0
111113  1  0  0  0  0
103114  2  0  0  0  0
114115  1  0  0  0  0
102116  1  0  0  0  0
116117  2  0  0  0  0
117118  1  0  0  0  0
117119  1  0  0  0  0
119120  2  0  0  0  0
120121  1  0  0  0  0
121122  2  0  0  0  0
122123  1  0  0  0  0
123124  2  0  0  0  0
124125  1  0  0  0  0
125126  2  0  0  0  0
126127  1  0  0  0  0
127128  1  0  0  0  0
128129  1  0  0  0  0
126130  1  0  0  0  0
130131  1  0  0  0  0
130132  2  0  0  0  0
122133  1  0  0  0  0
133134  2  0  0  0  0
134135  1  0  0  0  0
135136  1  0  0  0  0
136137  2  0  0  0  0
137138  1  0  0  0  0
138139  2  0  0  0  0
139140  1  0  0  0  0
140141  1  0  0  0  0
141142  1  0  0  0  0
139143  1  0  0  0  0
143144  2  0  0  0  0
143145  1  0  0  0  0
135146  2  0  0  0  0
146147  1  0  0  0  0
134148  1  0  0  0  0
148149  2  0  0  0  0
149150  1  0  0  0  0
 29  1  1  0  0  0  0
 37 33  2  0  0  0  0
 43 39  2  0  0  0  0
 48 44  2  0  0  0  0
 54 50  2  0  0  0  0
 83 55  1  0  0  0  0
115 87  1  0  0  0  0
147119  1  0  0  0  0
 28  3  1  0  0  0  0
 40 36  1  0  0  0  0
 51 47  1  0  0  0  0
 82 57  1  0  0  0  0
114 89  1  0  0  0  0
146121  1  0  0  0  0
 14  5  1  0  0  0  0
 32 15  1  0  0  0  0
 68 59  1  0  0  0  0
 86 69  1  0  0  0  0
100 91  1  0  0  0  0
118101  1  0  0  0  0
132123  1  0  0  0  0
150133  1  0  0  0  0
 26 18  1  0  0  0  0
 80 72  1  0  0  0  0
112104  1  0  0  0  0
144136  1  0  0  0  0
  1151  1  0  0  0  0
  2152  1  0  0  0  0
  6153  1  0  0  0  0
  7154  1  0  0  0  0
 10155  1  0  0  0  0
 10156  1  0  0  0  0
 11157  1  0  0  0  0
 11158  1  0  0  0  0
 11159  1  0  0  0  0
 14160  1  0  0  0  0
 19161  1  0  0  0  0
 20162  1  0  0  0  0
 23163  1  0  0  0  0
 23164  1  0  0  0  0
 24165  1  0  0  0  0
 24166  1  0  0  0  0
 24167  1  0  0  0  0
 26168  1  0  0  0  0
 30169  1  0  0  0  0
 35170  1  0  0  0  0
 41171  1  0  0  0  0
 46172  1  0  0  0  0
 52173  1  0  0  0  0
 56174  1  0  0  0  0
 60175  1  0  0  0  0
 61176  1  0  0  0  0
 64177  1  0  0  0  0
 64178  1  0  0  0  0
 65179  1  0  0  0  0
 65180  1  0  0  0  0
 65181  1  0  0  0  0
 68182  1  0  0  0  0
 73183  1  0  0  0  0
 74184  1  0  0  0  0
 77185  1  0  0  0  0
 77186  1  0  0  0  0
 78187  1  0  0  0  0
 78188  1  0  0  0  0
 78189  1  0  0  0  0
 80190  1  0  0  0  0
 84191  1  0  0  0  0
 88192  1  0  0  0  0
 92193  1  0  0  0  0
 93194  1  0  0  0  0
 96195  1  0  0  0  0
 96196  1  0  0  0  0
 97197  1  0  0  0  0
 97198  1  0  0  0  0
 97199  1  0  0  0  0
100200  1  0  0  0  0
105201  1  0  0  0  0
106202  1  0  0  0  0
109203  1  0  0  0  0
109204  1  0  0  0  0
110205  1  0  0  0  0
110206  1  0  0  0  0
110207  1  0  0  0  0
112208  1  0  0  0  0
116209  1  0  0  0  0
120210  1  0  0  0  0
124211  1  0  0  0  0
125212  1  0  0  0  0
128213  1  0  0  0  0
128214  1  0  0  0  0
129215  1  0  0  0  0
129216  1  0  0  0  0
129217  1  0  0  0  0
132218  1  0  0  0  0
137219  1  0  0  0  0
138220  1  0  0  0  0
141221  1  0  0  0  0
141222  1  0  0  0  0
142223  1  0  0  0  0
142224  1  0  0  0  0
142225  1  0  0  0  0
144226  1  0  0  0  0
148227  1  0  0  0  0
149228  1  0  0  0  0
M  END
