220

C         -4.51750        2.60570        9.98860
S         -3.61620        1.15380        9.76110
C         -4.25750        0.93340        8.16850
C         -5.14610        1.95700        7.86660
C         -5.27650        2.90950        8.91350
N         -5.97270        2.04270        6.71850
O         -5.96720        1.13950        5.90630
O         -6.67710        3.03340        6.62690
C         -3.82380       -0.17690        7.37650
C         -3.56970       -0.20670        6.03900
C         -3.17930       -1.48340        5.56680
C         -2.86600       -1.85180        4.24670
C         -2.90830       -0.87400        3.15390
C         -3.98380       -0.00240        2.99000
C         -3.98240        0.95800        1.99640
C         -2.90520        1.08530        1.12490
S         -2.72410        2.29390       -0.14170
C         -4.18890        3.36330        0.03420
C         -5.41610        2.79300       -0.65190
C         -1.85090        0.18200        1.28060
F         -0.79110        0.26770        0.44650
C         -1.83570       -0.77700        2.26590
C         -2.48680       -3.17360        4.05470
C         -2.36550       -4.11830        5.10590
C         -2.66990       -3.74180        6.42480
C         -2.52490       -4.67310        7.54980
C         -1.33390       -5.36890        7.75510
C         -1.18930       -6.20540        8.84010
C         -2.22480       -6.39830        9.75450
S         -1.92230       -7.53030       11.07640
C         -2.80750       -6.81690       12.51150
C         -2.33650       -5.41260       12.83130
C         -3.41850       -5.72300        9.51660
C         -3.56820       -4.86040        8.44970
F         -4.48650       -5.89290       10.32600
C         -3.09500       -2.43520        6.61440
S         -3.52200       -1.72570        8.14740
C         -1.95990       -5.39600        4.63340
C         -1.79320       -5.44140        3.28300
S         -2.13210       -3.90160        2.51500
C         -1.29650       -6.49060        2.44130
S         -1.71380       -6.45310        0.74750
C         -0.57140       -7.70030        0.36160
C          0.04220       -8.14520        1.52310
C         -0.38230       -7.47250        2.69470
N          1.02740       -9.15930        1.55290
O          1.41210       -9.61060        0.48830
O          1.42900       -9.52190        2.64120
C         -0.29040       -7.85430       -1.03070
C         -1.18890       -7.54480       -2.01610
C         -0.57910       -7.12990       -3.21940
C         -1.19820       -6.46260       -4.28930
C         -2.65820       -6.35950       -4.43480
C         -3.27000       -6.78580       -5.60820
C         -4.63770       -6.68630       -5.78030
C         -5.43830       -6.13600       -4.78590
S         -7.18630       -5.95880       -4.86590
C         -7.58210       -6.40990       -6.59720
C         -9.05180       -6.12740       -6.84610
C         -4.80560       -5.69200       -3.62270
F         -5.55090       -5.13330       -2.64690
C         -3.44640       -5.79560       -3.43420
C         -0.36400       -5.74110       -5.12070
C          1.04860       -5.71320       -4.98980
C          1.67100       -6.51440       -4.01770
C          3.12780       -6.50690       -3.81190
C          3.85550       -7.69400       -3.84170
C          5.22390       -7.67990       -3.67550
C          5.91700       -6.49180       -3.44560
S          7.66710       -6.60870       -3.23210
C          8.32860       -5.07940       -3.99450
C          7.92050       -4.93740       -5.44680
C          5.16590       -5.32430       -3.35110
C          3.79980       -5.31890       -3.54730
F          5.74820       -4.14040       -3.05310
C          0.83670       -7.18060       -3.13190
S          1.36370       -7.88260       -1.61970
C          1.61740       -4.63030       -5.71070
C          0.68330       -3.79540       -6.25540
S         -0.93680       -4.47500       -6.17780
C          0.82380       -2.38060       -6.40580
C         -0.17270       -1.50040       -6.09560
C          0.29870       -0.22590       -5.69990
C         -0.43160        0.74360       -4.99770
C         -1.87080        0.58960       -4.74690
C         -2.35800        0.57610       -3.44050
C         -3.70320        0.40580       -3.19930
C         -4.61800        0.26810       -4.24140
S         -6.32560        0.13640       -3.79860
C         -7.00060       -1.09630       -4.97030
C         -6.26780       -2.41940       -4.89070
C         -4.11830        0.30420       -5.53970
F         -4.94490        0.20980       -6.60620
C         -2.76820        0.43800       -5.79760
C          0.29850        1.77030       -4.42380
C          1.70310        1.90550       -4.56350
C          2.43200        0.93460       -5.27500
C          3.89810        0.95390       -5.34280
C          4.66650        1.09090       -4.18990
C          6.04610        1.08840       -4.24640
C          6.70920        0.95990       -5.46170
S          8.45940        0.94690       -5.66540
C          9.08590        1.70960       -4.12800
C          8.71530        3.17620       -4.01630
C          5.92650        0.79510       -6.60580
C          4.55030        0.78550       -6.56220
F          6.53520        0.64520       -7.79880
C          1.70750       -0.12190       -5.80540
S          2.40100       -1.60740       -6.42150
C          2.19760        3.00350       -3.81150
C          1.23310        3.63330       -3.08100
S         -0.36330        2.98340       -3.36980
C          1.39240        4.59330       -2.03130
C          2.41460        5.45870       -1.78480
C          2.27620        6.15400       -0.55290
C          3.11990        7.12920        0.00250
C          4.37970        7.50890       -0.64720
C          5.29490        6.53550       -1.04870
C          6.48950        6.89300       -1.63280
C          6.82020        8.23040       -1.85530
S          8.36530        8.54450       -2.64620
C          8.86890       10.20090       -2.03120
C         10.37030       10.34160       -2.18690
C          5.88640        9.18890       -1.47290
F          6.10700       10.50410       -1.69680
C          4.69570        8.84480       -0.86500
C          2.71730        7.68810        1.20850
C          1.55080        7.28480        1.90420
C          0.72370        6.29290        1.36390
C         -0.47310        5.78490        2.04960
C         -0.62020        4.41750        2.28120
C         -1.74020        3.92970        2.91640
C         -2.77560        4.77330        3.31960
S         -4.18750        3.98810        4.04500
C         -4.87410        5.20470        5.22500
C         -3.88590        5.54650        6.32230
C         -2.62670        6.13120        3.05500
C         -1.49100        6.63880        2.45390
F         -3.59690        7.01890        3.37260
C          1.09990        5.76970        0.13580
S          0.18830        4.59170       -0.75960
C          1.42070        7.96280        3.15310
C          2.42210        8.83460        3.38400
S          3.59600        8.89530        2.11350
H         -4.42890        3.14050       10.91250
H         -5.92980        3.75930        8.83790
H         -3.63990        0.65860        5.40750
H         -4.84420       -0.07920        3.63690
H         -4.83060        1.61680        1.92130
H         -4.34660        3.54340        1.09660
H         -3.88040        4.29720       -0.43640
H         -6.25820        3.46860       -0.51680
H         -5.68460        1.82240       -0.24140
H         -5.23570        2.67340       -1.71770
H         -0.97280       -1.41780        2.35570
H         -0.50620       -5.22140        7.07820
H         -0.26060       -6.72890        9.00570
H         -3.87840       -6.85720       12.32600
H         -2.56100       -7.50700       13.31860
H         -2.58600       -4.72460       12.02570
H         -1.25870       -5.39560       12.97950
H         -2.82060       -5.06410       13.74130
H         -4.51870       -4.36860        8.31340
H         -1.82760       -6.25020        5.27170
H          0.03190       -7.68990        3.66210
H         -2.25110       -7.53250       -1.85020
H         -2.66780       -7.21630       -6.39390
H         -5.07530       -7.04480       -6.69710
H         -7.36170       -7.46900       -6.73210
H         -6.95190       -5.80710       -7.25120
H         -9.67160       -6.71050       -6.16910
H         -9.26940       -5.07330       -6.68930
H         -9.31050       -6.38920       -7.86980
H         -3.00970       -5.40740       -2.52720
H          3.34540       -8.62800       -4.02040
H          5.78850       -8.59780       -3.72180
H          8.02040       -4.22330       -3.39870
H          9.40720       -5.20670       -3.90100
H          6.84330       -4.81270       -5.53890
H          8.40260       -4.06210       -5.87750
H          8.21690       -5.81650       -6.01500
H          3.26750       -4.38540       -3.44820
H          2.66590       -4.39460       -5.70570
H         -1.20380       -1.79410       -6.01300
H         -1.67970        0.66940       -2.60690
H         -4.07100        0.37300       -2.18630
H         -6.98190       -0.67650       -5.97390
H         -8.03660       -1.20300       -4.64870
H         -6.29260       -2.81060       -3.87620
H         -6.74760       -3.13850       -5.55090
H         -5.22820       -2.31220       -5.19690
H         -2.43240        0.45790       -6.82330
H          4.17770        1.16650       -3.23040
H          6.60440        1.17410       -3.32820
H          8.73630        1.12480       -3.27790
H         10.16600        1.58840       -4.20980
H          9.14660        3.59830       -3.11060
H          9.09820        3.72710       -4.87190
H          7.63540        3.30570       -3.98130
H          3.99590        0.66720       -7.47990
H          3.23460        3.28290       -3.77710
H          3.22700        5.61960       -2.46960
H          5.07740        5.49390       -0.86780
H          7.20140        6.13830       -1.92980
H          8.57380       10.26010       -0.98470
H          8.34080       10.95820       -2.60840
H         10.68560       11.31820       -1.82630
H         10.88790        9.57330       -1.61680
H         10.65630       10.24680       -3.23200
H          4.00880        9.63180       -0.59600
H          0.15860        3.73500        1.97920
H         -1.84030        2.87210        3.10780
H         -5.75200        4.69700        5.62640
H         -5.20060        6.08530        4.67780
H         -4.36040        6.20480        7.04710
H         -3.01320        6.05570        5.91680
H         -3.55060        4.64610        6.83530
H         -1.43350        7.70080        2.27040
H          0.61200        7.78440        3.83830
H          2.56090        9.46980        4.23700
