
  xtb     03082206283D
 energy: -332.900337327770 gnorm: 0.000394195386 xtb: 6.4.1 (unknown)
179196  0     0  0            999 V2000
    9.8273  -10.0138   11.2927 C   0  0  0  0  0  0  0  0  0  0  0  0
    8.8054   -9.4079   10.0476 S   0  0  0  0  0  0  0  0  0  0  0  0
    7.5160   -9.0993   11.1656 C   0  0  0  0  0  0  0  0  0  0  0  0
    7.9086   -9.4605   12.4469 C   0  0  0  0  0  0  0  0  0  0  0  0
    9.2256   -9.9871   12.5026 C   0  0  0  0  0  0  0  0  0  0  0  0
    7.1722   -9.2598   13.6470 N   0  0  0  0  0  4  0  0  0  0  0  0
    6.1432   -8.6169   13.5989 O   0  0  0  0  0  1  0  0  0  0  0  0
    7.6419   -9.7312   14.6627 O   0  0  0  0  0  0  0  0  0  0  0  0
    6.2815   -8.5866   10.6522 C   0  0  0  0  0  0  0  0  0  0  0  0
    6.3159   -7.6169    9.1961 S   0  0  0  0  0  0  0  0  0  0  0  0
    4.5924   -7.4622    9.1644 C   0  0  0  0  0  0  0  0  0  0  0  0
    4.0365   -8.1692   10.2318 C   0  0  0  0  0  0  0  0  0  0  0  0
    4.9948   -8.7852   11.0649 C   0  0  0  0  0  0  0  0  0  0  0  0
    2.6564   -8.4146   10.4662 N   0  0  0  0  0  4  0  0  0  0  0  0
    1.8324   -7.9471    9.7013 O   0  0  0  0  0  1  0  0  0  0  0  0
    2.3741   -9.1177   11.4147 O   0  0  0  0  0  0  0  0  0  0  0  0
    4.0179   -6.6796    8.1210 C   0  0  0  0  0  0  0  0  0  0  0  0
    2.8523   -5.9667    8.0942 C   0  0  0  0  0  0  0  0  0  0  0  0
    2.6247   -5.2978    6.8703 C   0  0  0  0  0  0  0  0  0  0  0  0
    1.5189   -4.4943    6.5304 C   0  0  0  0  0  0  0  0  0  0  0  0
    0.3733   -4.3584    7.4329 C   0  0  0  0  0  0  0  0  0  0  0  0
   -0.1897   -5.4809    8.0383 C   0  0  0  0  0  0  0  0  0  0  0  0
   -1.2806   -5.3694    8.8769 C   0  0  0  0  0  0  0  0  0  0  0  0
   -1.8535   -4.1303    9.1438 C   0  0  0  0  0  0  0  0  0  0  0  0
   -3.2230   -3.8349   10.2057 S   0  0  0  0  0  0  0  0  0  0  0  0
   -3.8266   -5.5008   10.6465 C   0  0  0  0  0  0  0  0  0  0  0  0
   -4.5820   -6.1608    9.5083 C   0  0  0  0  0  0  0  0  0  0  0  0
   -1.2776   -3.0145    8.5303 C   0  0  0  0  0  0  0  0  0  0  0  0
   -1.7965   -1.7945    8.7747 F   0  0  0  0  0  0  0  0  0  0  0  0
   -0.1930   -3.1101    7.6898 C   0  0  0  0  0  0  0  0  0  0  0  0
    1.5624   -3.8857    5.2852 C   0  0  0  0  0  0  0  0  0  0  0  0
    2.6279   -4.0679    4.3659 C   0  0  0  0  0  0  0  0  0  0  0  0
    3.7277   -4.8768    4.7039 C   0  0  0  0  0  0  0  0  0  0  0  0
    4.8634   -5.0568    3.7930 C   0  0  0  0  0  0  0  0  0  0  0  0
    5.4848   -3.9618    3.1992 C   0  0  0  0  0  0  0  0  0  0  0  0
    6.5707   -4.1212    2.3601 C   0  0  0  0  0  0  0  0  0  0  0  0
    7.0797   -5.3857    2.0855 C   0  0  0  0  0  0  0  0  0  0  0  0
    8.4405   -5.7466    1.0309 S   0  0  0  0  0  0  0  0  0  0  0  0
    9.1417   -4.1137    0.6126 C   0  0  0  0  0  0  0  0  0  0  0  0
    9.9165   -3.5034    1.7656 C   0  0  0  0  0  0  0  0  0  0  0  0
    6.4435   -6.4752    2.6859 C   0  0  0  0  0  0  0  0  0  0  0  0
    5.3616   -6.3305    3.5230 C   0  0  0  0  0  0  0  0  0  0  0  0
    6.9025   -7.7169    2.4352 F   0  0  0  0  0  0  0  0  0  0  0  0
    3.6899   -5.4793    5.9520 C   0  0  0  0  0  0  0  0  0  0  0  0
    4.9283   -6.5030    6.6239 S   0  0  0  0  0  0  0  0  0  0  0  0
    2.3832   -3.4054    3.1382 C   0  0  0  0  0  0  0  0  0  0  0  0
    1.2022   -2.7230    3.1108 C   0  0  0  0  0  0  0  0  0  0  0  0
    0.3114   -2.8735    4.6107 S   0  0  0  0  0  0  0  0  0  0  0  0
    0.6676   -1.9488    2.0398 C   0  0  0  0  0  0  0  0  0  0  0  0
   -0.4763   -1.2070    2.0401 C   0  0  0  0  0  0  0  0  0  0  0  0
   -0.7345   -0.5577    0.8069 C   0  0  0  0  0  0  0  0  0  0  0  0
   -1.7993    0.3058    0.4949 C   0  0  0  0  0  0  0  0  0  0  0  0
   -2.8698    0.5879    1.4570 C   0  0  0  0  0  0  0  0  0  0  0  0
   -3.5390   -0.4439    2.1157 C   0  0  0  0  0  0  0  0  0  0  0  0
   -4.5627   -0.1671    2.9935 C   0  0  0  0  0  0  0  0  0  0  0  0
   -4.9588    1.1441    3.2666 C   0  0  0  0  0  0  0  0  0  0  0  0
   -6.2596    1.3409    4.4376 S   0  0  0  0  0  0  0  0  0  0  0  0
   -7.0247    2.9611    4.0314 C   0  0  0  0  0  0  0  0  0  0  0  0
   -8.4100    3.0071    4.6458 C   0  0  0  0  0  0  0  0  0  0  0  0
   -4.2649    2.1631    2.6200 C   0  0  0  0  0  0  0  0  0  0  0  0
   -4.5474    3.4643    2.8579 F   0  0  0  0  0  0  0  0  0  0  0  0
   -3.2521    1.8984    1.7205 C   0  0  0  0  0  0  0  0  0  0  0  0
   -1.7916    0.8659   -0.7740 C   0  0  0  0  0  0  0  0  0  0  0  0
   -0.7897    0.5815   -1.7337 C   0  0  0  0  0  0  0  0  0  0  0  0
    0.2861   -0.2685   -1.4192 C   0  0  0  0  0  0  0  0  0  0  0  0
    1.3384   -0.5235   -2.4084 C   0  0  0  0  0  0  0  0  0  0  0  0
    1.9140    0.5307   -3.1154 C   0  0  0  0  0  0  0  0  0  0  0  0
    2.8416    0.3062   -4.1131 C   0  0  0  0  0  0  0  0  0  0  0  0
    3.2362   -0.9869   -4.4396 C   0  0  0  0  0  0  0  0  0  0  0  0
    4.3560   -1.4145   -5.7275 S   0  0  0  0  0  0  0  0  0  0  0  0
    4.4546    0.0947   -6.7545 C   0  0  0  0  0  0  0  0  0  0  0  0
    5.5558    1.0428   -6.3200 C   0  0  0  0  0  0  0  0  0  0  0  0
    2.6952   -2.0299   -3.6836 C   0  0  0  0  0  0  0  0  0  0  0  0
    1.7637   -1.8200   -2.6919 C   0  0  0  0  0  0  0  0  0  0  0  0
    3.0753   -3.2946   -3.9506 F   0  0  0  0  0  0  0  0  0  0  0  0
    0.2777   -0.8260   -0.1508 C   0  0  0  0  0  0  0  0  0  0  0  0
    1.5050   -1.8799    0.5012 S   0  0  0  0  0  0  0  0  0  0  0  0
   -1.0554    1.2094   -2.9730 C   0  0  0  0  0  0  0  0  0  0  0  0
   -2.1846    1.9762   -2.9722 C   0  0  0  0  0  0  0  0  0  0  0  0
   -3.0067    1.9365   -1.4282 S   0  0  0  0  0  0  0  0  0  0  0  0
   -2.6525    2.7569   -4.0730 C   0  0  0  0  0  0  0  0  0  0  0  0
   -1.9593    2.9944   -5.2248 C   0  0  0  0  0  0  0  0  0  0  0  0
   -2.6565    3.8015   -6.1535 C   0  0  0  0  0  0  0  0  0  0  0  0
   -2.2190    4.2163   -7.4221 C   0  0  0  0  0  0  0  0  0  0  0  0
   -0.9177    3.7755   -7.9409 C   0  0  0  0  0  0  0  0  0  0  0  0
   -0.5734    2.4240   -7.9466 C   0  0  0  0  0  0  0  0  0  0  0  0
    0.6671    2.0165   -8.3885 C   0  0  0  0  0  0  0  0  0  0  0  0
    1.6158    2.9364   -8.8299 C   0  0  0  0  0  0  0  0  0  0  0  0
    3.2091    2.3146   -9.2886 S   0  0  0  0  0  0  0  0  0  0  0  0
    3.6211    3.2436  -10.8103 C   0  0  0  0  0  0  0  0  0  0  0  0
    2.5773    3.0489  -11.8908 C   0  0  0  0  0  0  0  0  0  0  0  0
    1.2589    4.2815   -8.8184 C   0  0  0  0  0  0  0  0  0  0  0  0
    2.1388    5.2301   -9.2015 F   0  0  0  0  0  0  0  0  0  0  0  0
    0.0120    4.7017   -8.4005 C   0  0  0  0  0  0  0  0  0  0  0  0
   -3.0685    5.0539   -8.1256 C   0  0  0  0  0  0  0  0  0  0  0  0
   -4.3354    5.4602   -7.6342 C   0  0  0  0  0  0  0  0  0  0  0  0
   -4.7811    5.0256   -6.3737 C   0  0  0  0  0  0  0  0  0  0  0  0
   -6.0976    5.4117   -5.8519 C   0  0  0  0  0  0  0  0  0  0  0  0
   -6.2318    5.9619   -4.5783 C   0  0  0  0  0  0  0  0  0  0  0  0
   -7.4723    6.3166   -4.0954 C   0  0  0  0  0  0  0  0  0  0  0  0
   -8.6283    6.1430   -4.8560 C   0  0  0  0  0  0  0  0  0  0  0  0
  -10.1450    6.6963   -4.1388 S   0  0  0  0  0  0  0  0  0  0  0  0
  -11.4002    5.4909   -4.7078 C   0  0  0  0  0  0  0  0  0  0  0  0
  -11.0540    4.0739   -4.2981 C   0  0  0  0  0  0  0  0  0  0  0  0
   -8.4761    5.6071   -6.1316 C   0  0  0  0  0  0  0  0  0  0  0  0
   -7.2414    5.2346   -6.6235 C   0  0  0  0  0  0  0  0  0  0  0  0
   -9.5403    5.4337   -6.9472 F   0  0  0  0  0  0  0  0  0  0  0  0
   -3.9160    4.2155   -5.6535 C   0  0  0  0  0  0  0  0  0  0  0  0
   -4.2152    3.5440   -4.0697 S   0  0  0  0  0  0  0  0  0  0  0  0
   -4.9964    6.3250   -8.5435 C   0  0  0  0  0  0  0  0  0  0  0  0
   -4.2965    6.5504   -9.6908 C   0  0  0  0  0  0  0  0  0  0  0  0
   -2.7587    5.7100   -9.7113 S   0  0  0  0  0  0  0  0  0  0  0  0
   -4.6785    7.3608  -10.8026 C   0  0  0  0  0  0  0  0  0  0  0  0
   -6.2081    8.2125  -10.8062 S   0  0  0  0  0  0  0  0  0  0  0  0
   -5.8986    8.8653  -12.3463 C   0  0  0  0  0  0  0  0  0  0  0  0
   -4.6858    8.4520  -12.8348 C   0  0  0  0  0  0  0  0  0  0  0  0
   -3.9858    7.5932  -11.9578 C   0  0  0  0  0  0  0  0  0  0  0  0
   -4.1831    8.8509  -14.1062 N   0  0  0  0  0  4  0  0  0  0  0  0
   -3.1008    8.4171  -14.4401 O   0  0  0  0  0  1  0  0  0  0  0  0
   -4.8724    9.5967  -14.7714 O   0  0  0  0  0  0  0  0  0  0  0  0
   10.8136  -10.3518   11.0472 H   0  0  0  0  0  0  0  0  0  0  0  0
    9.6732  -10.3086   13.4250 H   0  0  0  0  0  0  0  0  0  0  0  0
    4.7052   -9.3569   11.9272 H   0  0  0  0  0  0  0  0  0  0  0  0
    2.1840   -5.8952    8.9300 H   0  0  0  0  0  0  0  0  0  0  0  0
    0.2172   -6.4607    7.8434 H   0  0  0  0  0  0  0  0  0  0  0  0
   -1.6723   -6.2659    9.3274 H   0  0  0  0  0  0  0  0  0  0  0  0
   -4.4885   -5.3159   11.4926 H   0  0  0  0  0  0  0  0  0  0  0  0
   -2.9825   -6.0961   10.9913 H   0  0  0  0  0  0  0  0  0  0  0  0
   -3.9426   -6.2985    8.6392 H   0  0  0  0  0  0  0  0  0  0  0  0
   -5.4296   -5.5459    9.2149 H   0  0  0  0  0  0  0  0  0  0  0  0
   -4.9511   -7.1340    9.8261 H   0  0  0  0  0  0  0  0  0  0  0  0
    0.2183   -2.2080    7.2654 H   0  0  0  0  0  0  0  0  0  0  0  0
    5.1302   -2.9654    3.4160 H   0  0  0  0  0  0  0  0  0  0  0  0
    7.0157   -3.2443    1.9193 H   0  0  0  0  0  0  0  0  0  0  0  0
    8.3371   -3.4705    0.2591 H   0  0  0  0  0  0  0  0  0  0  0  0
    9.8046   -4.3293   -0.2254 H   0  0  0  0  0  0  0  0  0  0  0  0
   10.3395   -2.5476    1.4621 H   0  0  0  0  0  0  0  0  0  0  0  0
   10.7276   -4.1639    2.0623 H   0  0  0  0  0  0  0  0  0  0  0  0
    9.2754   -3.3418    2.6295 H   0  0  0  0  0  0  0  0  0  0  0  0
    4.9026   -7.2125    3.9403 H   0  0  0  0  0  0  0  0  0  0  0  0
    3.0468   -3.4477    2.2932 H   0  0  0  0  0  0  0  0  0  0  0  0
   -1.1034   -1.1115    2.9084 H   0  0  0  0  0  0  0  0  0  0  0  0
   -3.2756   -1.4699    1.9089 H   0  0  0  0  0  0  0  0  0  0  0  0
   -5.0858   -0.9689    3.4910 H   0  0  0  0  0  0  0  0  0  0  0  0
   -7.0720    3.0356    2.9461 H   0  0  0  0  0  0  0  0  0  0  0  0
   -6.3919    3.7521    4.4306 H   0  0  0  0  0  0  0  0  0  0  0  0
   -9.0317    2.2074    4.2495 H   0  0  0  0  0  0  0  0  0  0  0  0
   -8.3518    2.8951    5.7260 H   0  0  0  0  0  0  0  0  0  0  0  0
   -8.8795    3.9618    4.4189 H   0  0  0  0  0  0  0  0  0  0  0  0
   -2.7462    2.7318    1.2584 H   0  0  0  0  0  0  0  0  0  0  0  0
    1.6448    1.5466   -2.8675 H   0  0  0  0  0  0  0  0  0  0  0  0
    3.2538    1.1512   -4.6399 H   0  0  0  0  0  0  0  0  0  0  0  0
    3.4751    0.5699   -6.7543 H   0  0  0  0  0  0  0  0  0  0  0  0
    4.6533   -0.2805   -7.7579 H   0  0  0  0  0  0  0  0  0  0  0  0
    5.4100    1.3836   -5.2975 H   0  0  0  0  0  0  0  0  0  0  0  0
    5.5644    1.9081   -6.9796 H   0  0  0  0  0  0  0  0  0  0  0  0
    6.5225    0.5488   -6.3785 H   0  0  0  0  0  0  0  0  0  0  0  0
    1.3526   -2.6709   -2.1726 H   0  0  0  0  0  0  0  0  0  0  0  0
   -0.4434    1.0683   -3.8437 H   0  0  0  0  0  0  0  0  0  0  0  0
   -0.9652    2.6280   -5.3998 H   0  0  0  0  0  0  0  0  0  0  0  0
   -1.2950    1.6886   -7.6248 H   0  0  0  0  0  0  0  0  0  0  0  0
    0.9263    0.9689   -8.3981 H   0  0  0  0  0  0  0  0  0  0  0  0
    4.5810    2.8210  -11.1077 H   0  0  0  0  0  0  0  0  0  0  0  0
    3.7580    4.2927  -10.5575 H   0  0  0  0  0  0  0  0  0  0  0  0
    1.6188    3.4656  -11.5858 H   0  0  0  0  0  0  0  0  0  0  0  0
    2.8961    3.5534  -12.8005 H   0  0  0  0  0  0  0  0  0  0  0  0
    2.4420    1.9910  -12.1067 H   0  0  0  0  0  0  0  0  0  0  0  0
   -0.2046    5.7585   -8.3999 H   0  0  0  0  0  0  0  0  0  0  0  0
   -5.3563    6.1239   -3.9691 H   0  0  0  0  0  0  0  0  0  0  0  0
   -7.5717    6.7426   -3.1094 H   0  0  0  0  0  0  0  0  0  0  0  0
  -11.5259    5.5876   -5.7838 H   0  0  0  0  0  0  0  0  0  0  0  0
  -12.3093    5.8321   -4.2123 H   0  0  0  0  0  0  0  0  0  0  0  0
  -10.9037    4.0129   -3.2223 H   0  0  0  0  0  0  0  0  0  0  0  0
  -11.8654    3.4048   -4.5770 H   0  0  0  0  0  0  0  0  0  0  0  0
  -10.1458    3.7359   -4.7934 H   0  0  0  0  0  0  0  0  0  0  0  0
   -7.1872    4.7960   -7.6081 H   0  0  0  0  0  0  0  0  0  0  0  0
   -5.9514    6.7791   -8.3475 H   0  0  0  0  0  0  0  0  0  0  0  0
   -6.6007    9.5149  -12.8305 H   0  0  0  0  0  0  0  0  0  0  0  0
   -3.0212    7.1772  -12.1840 H   0  0  0  0  0  0  0  0  0  0  0  0
  1  2  1  0  0  0  0
  2  3  1  0  0  0  0
  3  4  2  0  0  0  0
  4  5  1  0  0  0  0
  4  6  1  0  0  0  0
  6  7  1  0  0  0  0
  6  8  2  0  0  0  0
  3  9  1  0  0  0  0
  9 10  1  0  0  0  0
 10 11  1  0  0  0  0
 11 12  2  0  0  0  0
 12 13  1  0  0  0  0
 12 14  1  0  0  0  0
 14 15  1  0  0  0  0
 14 16  2  0  0  0  0
 11 17  1  0  0  0  0
 17 18  2  0  0  0  0
 18 19  1  0  0  0  0
 19 20  2  0  0  0  0
 20 21  1  0  0  0  0
 21 22  2  0  0  0  0
 22 23  1  0  0  0  0
 23 24  2  0  0  0  0
 24 25  1  0  0  0  0
 25 26  1  0  0  0  0
 26 27  1  0  0  0  0
 24 28  1  0  0  0  0
 28 29  1  0  0  0  0
 28 30  2  0  0  0  0
 20 31  1  0  0  0  0
 31 32  2  0  0  0  0
 32 33  1  0  0  0  0
 33 34  1  0  0  0  0
 34 35  2  0  0  0  0
 35 36  1  0  0  0  0
 36 37  2  0  0  0  0
 37 38  1  0  0  0  0
 38 39  1  0  0  0  0
 39 40  1  0  0  0  0
 37 41  1  0  0  0  0
 41 42  2  0  0  0  0
 41 43  1  0  0  0  0
 33 44  2  0  0  0  0
 44 45  1  0  0  0  0
 32 46  1  0  0  0  0
 46 47  2  0  0  0  0
 47 48  1  0  0  0  0
 47 49  1  0  0  0  0
 49 50  2  0  0  0  0
 50 51  1  0  0  0  0
 51 52  2  0  0  0  0
 52 53  1  0  0  0  0
 53 54  2  0  0  0  0
 54 55  1  0  0  0  0
 55 56  2  0  0  0  0
 56 57  1  0  0  0  0
 57 58  1  0  0  0  0
 58 59  1  0  0  0  0
 56 60  1  0  0  0  0
 60 61  1  0  0  0  0
 60 62  2  0  0  0  0
 52 63  1  0  0  0  0
 63 64  2  0  0  0  0
 64 65  1  0  0  0  0
 65 66  1  0  0  0  0
 66 67  2  0  0  0  0
 67 68  1  0  0  0  0
 68 69  2  0  0  0  0
 69 70  1  0  0  0  0
 70 71  1  0  0  0  0
 71 72  1  0  0  0  0
 69 73  1  0  0  0  0
 73 74  2  0  0  0  0
 73 75  1  0  0  0  0
 65 76  2  0  0  0  0
 76 77  1  0  0  0  0
 64 78  1  0  0  0  0
 78 79  2  0  0  0  0
 79 80  1  0  0  0  0
 79 81  1  0  0  0  0
 81 82  2  0  0  0  0
 82 83  1  0  0  0  0
 83 84  2  0  0  0  0
 84 85  1  0  0  0  0
 85 86  2  0  0  0  0
 86 87  1  0  0  0  0
 87 88  2  0  0  0  0
 88 89  1  0  0  0  0
 89 90  1  0  0  0  0
 90 91  1  0  0  0  0
 88 92  1  0  0  0  0
 92 93  1  0  0  0  0
 92 94  2  0  0  0  0
 84 95  1  0  0  0  0
 95 96  2  0  0  0  0
 96 97  1  0  0  0  0
 97 98  1  0  0  0  0
 98 99  2  0  0  0  0
 99100  1  0  0  0  0
100101  2  0  0  0  0
101102  1  0  0  0  0
102103  1  0  0  0  0
103104  1  0  0  0  0
101105  1  0  0  0  0
105106  2  0  0  0  0
105107  1  0  0  0  0
 97108  2  0  0  0  0
108109  1  0  0  0  0
 96110  1  0  0  0  0
110111  2  0  0  0  0
111112  1  0  0  0  0
111113  1  0  0  0  0
113114  1  0  0  0  0
114115  1  0  0  0  0
115116  2  0  0  0  0
116117  1  0  0  0  0
116118  1  0  0  0  0
118119  1  0  0  0  0
118120  2  0  0  0  0
  5  1  2  0  0  0  0
 13  9  2  0  0  0  0
 45 17  1  0  0  0  0
 77 49  1  0  0  0  0
109 81  1  0  0  0  0
117113  2  0  0  0  0
 44 19  1  0  0  0  0
 76 51  1  0  0  0  0
108 83  1  0  0  0  0
 30 21  1  0  0  0  0
 48 31  1  0  0  0  0
 62 53  1  0  0  0  0
 80 63  1  0  0  0  0
 94 85  1  0  0  0  0
112 95  1  0  0  0  0
 42 34  1  0  0  0  0
 74 66  1  0  0  0  0
106 98  1  0  0  0  0
  1121  1  0  0  0  0
  5122  1  0  0  0  0
 13123  1  0  0  0  0
 18124  1  0  0  0  0
 22125  1  0  0  0  0
 23126  1  0  0  0  0
 26127  1  0  0  0  0
 26128  1  0  0  0  0
 27129  1  0  0  0  0
 27130  1  0  0  0  0
 27131  1  0  0  0  0
 30132  1  0  0  0  0
 35133  1  0  0  0  0
 36134  1  0  0  0  0
 39135  1  0  0  0  0
 39136  1  0  0  0  0
 40137  1  0  0  0  0
 40138  1  0  0  0  0
 40139  1  0  0  0  0
 42140  1  0  0  0  0
 46141  1  0  0  0  0
 50142  1  0  0  0  0
 54143  1  0  0  0  0
 55144  1  0  0  0  0
 58145  1  0  0  0  0
 58146  1  0  0  0  0
 59147  1  0  0  0  0
 59148  1  0  0  0  0
 59149  1  0  0  0  0
 62150  1  0  0  0  0
 67151  1  0  0  0  0
 68152  1  0  0  0  0
 71153  1  0  0  0  0
 71154  1  0  0  0  0
 72155  1  0  0  0  0
 72156  1  0  0  0  0
 72157  1  0  0  0  0
 74158  1  0  0  0  0
 78159  1  0  0  0  0
 82160  1  0  0  0  0
 86161  1  0  0  0  0
 87162  1  0  0  0  0
 90163  1  0  0  0  0
 90164  1  0  0  0  0
 91165  1  0  0  0  0
 91166  1  0  0  0  0
 91167  1  0  0  0  0
 94168  1  0  0  0  0
 99169  1  0  0  0  0
100170  1  0  0  0  0
103171  1  0  0  0  0
103172  1  0  0  0  0
104173  1  0  0  0  0
104174  1  0  0  0  0
104175  1  0  0  0  0
106176  1  0  0  0  0
110177  1  0  0  0  0
115178  1  0  0  0  0
117179  1  0  0  0  0
M  CHG  1   6   1
M  CHG  1   7  -1
M  CHG  1  14   1
M  CHG  1  15  -1
M  CHG  1 118   1
M  CHG  1 119  -1
M  END
