
  xtb     03022220563D
 energy: -464.443906551395 gnorm: 0.000563431778 xtb: 6.4.1 (unknown)
240265  0     0  0            999 V2000
    1.5645   -1.6658    9.9142 C   0  0  0  0  0  0  0  0  0  0  0  0
    1.7825   -0.8578    8.8574 C   0  0  0  0  0  0  0  0  0  0  0  0
    0.9031   -1.1186    7.7656 C   0  0  0  0  0  0  0  0  0  0  0  0
    0.8695   -0.5130    6.4964 C   0  0  0  0  0  0  0  0  0  0  0  0
    1.9063    0.3980    6.0448 C   0  0  0  0  0  0  0  0  0  0  0  0
    1.5231    1.8367    5.1408 S   0  0  0  0  0  0  0  0  0  0  0  0
    3.1864    2.2625    4.9443 C   0  0  0  0  0  0  0  0  0  0  0  0
    3.5841    3.4545    4.1466 C   0  0  0  0  0  0  0  0  0  0  0  0
    3.7345    3.0881    2.6681 C   0  0  0  0  0  0  0  0  0  0  0  0
    3.9855    1.3340    5.5415 C   0  0  0  0  0  0  0  0  0  0  0  0
    5.7037    1.4071    5.5514 Cl  0  0  0  0  0  0  0  0  0  0  0  0
    3.2662    0.2837    6.1699 C   0  0  0  0  0  0  0  0  0  0  0  0
    4.0764   -1.0220    6.9248 Cl  0  0  0  0  0  0  0  0  0  0  0  0
   -0.2110   -0.8402    5.6798 C   0  0  0  0  0  0  0  0  0  0  0  0
   -1.1976   -1.7876    6.0436 C   0  0  0  0  0  0  0  0  0  0  0  0
   -1.0907   -2.4802    7.2605 C   0  0  0  0  0  0  0  0  0  0  0  0
   -2.0462   -3.5183    7.6102 C   0  0  0  0  0  0  0  0  0  0  0  0
   -2.3081   -4.8738    6.5494 S   0  0  0  0  0  0  0  0  0  0  0  0
   -3.4859   -5.5768    7.6049 C   0  0  0  0  0  0  0  0  0  0  0  0
   -4.1208   -6.8856    7.2889 C   0  0  0  0  0  0  0  0  0  0  0  0
   -3.2072   -8.0462    7.6896 C   0  0  0  0  0  0  0  0  0  0  0  0
   -3.6512   -4.7981    8.7104 C   0  0  0  0  0  0  0  0  0  0  0  0
   -2.8424   -3.6283    8.7147 C   0  0  0  0  0  0  0  0  0  0  0  0
   -2.9435   -2.4487    9.9534 Cl  0  0  0  0  0  0  0  0  0  0  0  0
   -4.7393   -5.1650    9.9855 Cl  0  0  0  0  0  0  0  0  0  0  0  0
   -0.0450   -2.1179    8.0997 C   0  0  0  0  0  0  0  0  0  0  0  0
    0.2711   -2.7857    9.6751 S   0  0  0  0  0  0  0  0  0  0  0  0
   -2.2493   -1.8607    5.0951 C   0  0  0  0  0  0  0  0  0  0  0  0
   -2.0792   -1.0178    4.0381 C   0  0  0  0  0  0  0  0  0  0  0  0
   -0.5658   -0.1408    4.1269 S   0  0  0  0  0  0  0  0  0  0  0  0
   -2.9654   -0.7399    2.9534 C   0  0  0  0  0  0  0  0  0  0  0  0
   -4.1572   -1.3249    2.6363 C   0  0  0  0  0  0  0  0  0  0  0  0
   -4.7515   -0.7871    1.4666 C   0  0  0  0  0  0  0  0  0  0  0  0
   -5.9047   -1.2247    0.7897 C   0  0  0  0  0  0  0  0  0  0  0  0
   -6.6631   -2.3792    1.2419 C   0  0  0  0  0  0  0  0  0  0  0  0
   -8.3885   -2.2924    1.4401 S   0  0  0  0  0  0  0  0  0  0  0  0
   -8.4967   -3.9502    1.9260 C   0  0  0  0  0  0  0  0  0  0  0  0
   -9.7984   -4.5557    2.3215 C   0  0  0  0  0  0  0  0  0  0  0  0
  -10.1192   -4.2571    3.7879 C   0  0  0  0  0  0  0  0  0  0  0  0
   -7.2597   -4.5214    1.9346 C   0  0  0  0  0  0  0  0  0  0  0  0
   -6.9635   -6.1569    2.3652 Cl  0  0  0  0  0  0  0  0  0  0  0  0
   -6.2194   -3.6383    1.5393 C   0  0  0  0  0  0  0  0  0  0  0  0
   -4.5936   -4.1617    1.3689 Cl  0  0  0  0  0  0  0  0  0  0  0  0
   -6.2595   -0.5441   -0.3685 C   0  0  0  0  0  0  0  0  0  0  0  0
   -5.5041    0.5346   -0.8863 C   0  0  0  0  0  0  0  0  0  0  0  0
   -4.3465    0.9731   -0.2216 C   0  0  0  0  0  0  0  0  0  0  0  0
   -3.4733    1.9983   -0.7638 C   0  0  0  0  0  0  0  0  0  0  0  0
   -2.9189    1.9341   -2.4159 S   0  0  0  0  0  0  0  0  0  0  0  0
   -1.8003    3.2310   -2.1798 C   0  0  0  0  0  0  0  0  0  0  0  0
   -0.9068    3.6952   -3.2778 C   0  0  0  0  0  0  0  0  0  0  0  0
   -1.2218    5.1311   -3.6973 C   0  0  0  0  0  0  0  0  0  0  0  0
   -1.8907    3.7045   -0.9053 C   0  0  0  0  0  0  0  0  0  0  0  0
   -2.8435    3.0207   -0.1058 C   0  0  0  0  0  0  0  0  0  0  0  0
   -3.2150    3.5323    1.4871 Cl  0  0  0  0  0  0  0  0  0  0  0  0
   -0.9193    4.9706   -0.2763 Cl  0  0  0  0  0  0  0  0  0  0  0  0
   -3.9969    0.2926    0.9401 C   0  0  0  0  0  0  0  0  0  0  0  0
   -2.5499    0.5538    1.8600 S   0  0  0  0  0  0  0  0  0  0  0  0
   -6.0206    0.9915   -2.1209 C   0  0  0  0  0  0  0  0  0  0  0  0
   -7.0888    0.2761   -2.5779 C   0  0  0  0  0  0  0  0  0  0  0  0
   -7.5771   -0.9539   -1.4335 S   0  0  0  0  0  0  0  0  0  0  0  0
   -7.6622    0.3344   -3.9032 C   0  0  0  0  0  0  0  0  0  0  0  0
   -8.7731   -0.4498   -4.2751 C   0  0  0  0  0  0  0  0  0  0  0  0
   -9.3907   -1.0995   -3.2642 O   0  0  0  0  0  0  0  0  0  0  0  0
  -10.3967   -2.0575   -3.5229 C   0  0  0  0  0  0  0  0  0  0  0  0
  -10.7349   -2.7235   -2.1981 C   0  0  0  0  0  0  0  0  0  0  0  0
   -9.1571   -0.5240   -5.6100 C   0  0  0  0  0  0  0  0  0  0  0  0
   -8.4314    0.1195   -6.6097 C   0  0  0  0  0  0  0  0  0  0  0  0
   -8.7052    0.0307   -7.9307 O   0  0  0  0  0  0  0  0  0  0  0  0
   -9.8074   -0.7383   -8.3712 C   0  0  0  0  0  0  0  0  0  0  0  0
   -9.8545   -0.6423   -9.8879 C   0  0  0  0  0  0  0  0  0  0  0  0
   -7.3383    0.9295   -6.2508 C   0  0  0  0  0  0  0  0  0  0  0  0
   -7.0161    1.0477   -4.9060 C   0  0  0  0  0  0  0  0  0  0  0  0
   -6.3550    1.5024   -7.1546 C   0  0  0  0  0  0  0  0  0  0  0  0
   -5.7675    0.8741   -8.1848 C   0  0  0  0  0  0  0  0  0  0  0  0
   -4.4202    1.2195   -8.5522 C   0  0  0  0  0  0  0  0  0  0  0  0
   -3.4285    0.3045   -8.7516 C   0  0  0  0  0  0  0  0  0  0  0  0
   -2.1339    0.7989   -8.4449 C   0  0  0  0  0  0  0  0  0  0  0  0
   -0.9776    0.0269   -8.2191 C   0  0  0  0  0  0  0  0  0  0  0  0
   -0.8778   -1.3218   -8.7275 C   0  0  0  0  0  0  0  0  0  0  0  0
   -0.2281   -2.6389   -7.7954 S   0  0  0  0  0  0  0  0  0  0  0  0
   -0.4508   -3.7686   -9.0876 C   0  0  0  0  0  0  0  0  0  0  0  0
   -0.0148   -5.1853   -8.9518 C   0  0  0  0  0  0  0  0  0  0  0  0
    1.4983   -5.3092   -9.1468 C   0  0  0  0  0  0  0  0  0  0  0  0
   -0.9853   -3.1457  -10.1763 C   0  0  0  0  0  0  0  0  0  0  0  0
   -1.3331   -3.9380  -11.6592 Cl  0  0  0  0  0  0  0  0  0  0  0  0
   -1.2350   -1.7636   -9.9766 C   0  0  0  0  0  0  0  0  0  0  0  0
   -1.8348   -0.7539  -11.2271 Cl  0  0  0  0  0  0  0  0  0  0  0  0
   -0.0148    0.6121   -7.3992 C   0  0  0  0  0  0  0  0  0  0  0  0
   -0.0295    1.9824   -7.0559 C   0  0  0  0  0  0  0  0  0  0  0  0
   -1.0604    2.8211   -7.5319 C   0  0  0  0  0  0  0  0  0  0  0  0
   -1.0028    4.2533   -7.3517 C   0  0  0  0  0  0  0  0  0  0  0  0
   -2.4063    5.2068   -6.9662 S   0  0  0  0  0  0  0  0  0  0  0  0
   -1.5069    6.6847   -6.9690 C   0  0  0  0  0  0  0  0  0  0  0  0
   -2.1741    7.9906   -6.7164 C   0  0  0  0  0  0  0  0  0  0  0  0
   -2.8927    8.4892   -7.9722 C   0  0  0  0  0  0  0  0  0  0  0  0
   -0.2014    6.4434   -7.2793 C   0  0  0  0  0  0  0  0  0  0  0  0
    0.0904    5.0715   -7.4950 C   0  0  0  0  0  0  0  0  0  0  0  0
    1.6482    4.5451   -7.9886 Cl  0  0  0  0  0  0  0  0  0  0  0  0
    0.9975    7.6674   -7.3959 Cl  0  0  0  0  0  0  0  0  0  0  0  0
   -2.1561    2.1677   -8.0911 C   0  0  0  0  0  0  0  0  0  0  0  0
   -3.7663    2.8187   -8.2359 S   0  0  0  0  0  0  0  0  0  0  0  0
    0.9159    2.2828   -6.0349 C   0  0  0  0  0  0  0  0  0  0  0  0
    1.5890    1.1918   -5.5882 C   0  0  0  0  0  0  0  0  0  0  0  0
    1.2119   -0.2480   -6.5163 S   0  0  0  0  0  0  0  0  0  0  0  0
    2.2838    1.0257   -4.3315 C   0  0  0  0  0  0  0  0  0  0  0  0
    3.3933    1.5943   -3.8006 C   0  0  0  0  0  0  0  0  0  0  0  0
    3.6645    1.1607   -2.4698 C   0  0  0  0  0  0  0  0  0  0  0  0
    4.7976    1.4282   -1.6836 C   0  0  0  0  0  0  0  0  0  0  0  0
    5.8611    2.3080   -2.1440 C   0  0  0  0  0  0  0  0  0  0  0  0
    5.5271    3.9528   -2.6023 S   0  0  0  0  0  0  0  0  0  0  0  0
    7.1938    4.2871   -2.9249 C   0  0  0  0  0  0  0  0  0  0  0  0
    7.6504    5.6425   -3.3387 C   0  0  0  0  0  0  0  0  0  0  0  0
    8.0324    6.4856   -2.1195 C   0  0  0  0  0  0  0  0  0  0  0  0
    7.9515    3.1805   -2.6839 C   0  0  0  0  0  0  0  0  0  0  0  0
    9.6539    3.1256   -2.8871 Cl  0  0  0  0  0  0  0  0  0  0  0  0
    7.2009    2.0557   -2.2476 C   0  0  0  0  0  0  0  0  0  0  0  0
    7.9262    0.5267   -1.9762 Cl  0  0  0  0  0  0  0  0  0  0  0  0
    4.8730    0.7929   -0.4498 C   0  0  0  0  0  0  0  0  0  0  0  0
    3.8489   -0.0464    0.0559 C   0  0  0  0  0  0  0  0  0  0  0  0
    2.7047   -0.3023   -0.7181 C   0  0  0  0  0  0  0  0  0  0  0  0
    1.6358   -1.1702   -0.2586 C   0  0  0  0  0  0  0  0  0  0  0  0
    1.9533   -2.7220    0.4683 S   0  0  0  0  0  0  0  0  0  0  0  0
    0.2740   -3.1152    0.5726 C   0  0  0  0  0  0  0  0  0  0  0  0
   -0.1981   -4.3790    1.2034 C   0  0  0  0  0  0  0  0  0  0  0  0
   -0.7394   -4.1131    2.6109 C   0  0  0  0  0  0  0  0  0  0  0  0
   -0.4808   -2.0952    0.0748 C   0  0  0  0  0  0  0  0  0  0  0  0
    0.2827   -0.9860   -0.3734 C   0  0  0  0  0  0  0  0  0  0  0  0
   -0.4534    0.4758   -0.8691 Cl  0  0  0  0  0  0  0  0  0  0  0  0
   -2.1896   -2.1673   -0.0717 Cl  0  0  0  0  0  0  0  0  0  0  0  0
    2.6696    0.2773   -1.9850 C   0  0  0  0  0  0  0  0  0  0  0  0
    1.4853   -0.0586   -3.2063 S   0  0  0  0  0  0  0  0  0  0  0  0
    4.1754   -0.5668    1.3312 C   0  0  0  0  0  0  0  0  0  0  0  0
    5.4096   -0.1931    1.7707 C   0  0  0  0  0  0  0  0  0  0  0  0
    6.2044    0.9072    0.6652 S   0  0  0  0  0  0  0  0  0  0  0  0
    6.1052   -0.7007    2.9054 C   0  0  0  0  0  0  0  0  0  0  0  0
    7.4157   -0.5134    3.2233 C   0  0  0  0  0  0  0  0  0  0  0  0
    7.8448   -1.2951    4.3241 C   0  0  0  0  0  0  0  0  0  0  0  0
    9.1344   -1.3664    4.8770 C   0  0  0  0  0  0  0  0  0  0  0  0
   10.2293   -0.5946    4.3142 C   0  0  0  0  0  0  0  0  0  0  0  0
   10.5831   -0.6643    2.6115 S   0  0  0  0  0  0  0  0  0  0  0  0
   11.8972    0.4532    2.7548 C   0  0  0  0  0  0  0  0  0  0  0  0
   12.6520    0.8961    1.5503 C   0  0  0  0  0  0  0  0  0  0  0  0
   11.7498    1.6674    0.5851 C   0  0  0  0  0  0  0  0  0  0  0  0
   12.0443    0.8417    4.0525 C   0  0  0  0  0  0  0  0  0  0  0  0
   13.2388    1.9482    4.5953 Cl  0  0  0  0  0  0  0  0  0  0  0  0
   11.1064    0.2457    4.9402 C   0  0  0  0  0  0  0  0  0  0  0  0
   11.0455    0.6333    6.6081 Cl  0  0  0  0  0  0  0  0  0  0  0  0
    9.3129   -2.2432    5.9402 C   0  0  0  0  0  0  0  0  0  0  0  0
    8.2574   -3.0084    6.4925 C   0  0  0  0  0  0  0  0  0  0  0  0
    6.9521   -2.8804    5.9879 C   0  0  0  0  0  0  0  0  0  0  0  0
    5.8201   -3.5274    6.6254 C   0  0  0  0  0  0  0  0  0  0  0  0
    4.5573   -4.2853    5.7004 S   0  0  0  0  0  0  0  0  0  0  0  0
    3.5844   -4.5712    7.1038 C   0  0  0  0  0  0  0  0  0  0  0  0
    2.2287   -5.1786    6.9934 C   0  0  0  0  0  0  0  0  0  0  0  0
    1.4548   -4.5950    5.8141 C   0  0  0  0  0  0  0  0  0  0  0  0
    4.2302   -4.1295    8.2192 C   0  0  0  0  0  0  0  0  0  0  0  0
    5.4917   -3.5323    7.9555 C   0  0  0  0  0  0  0  0  0  0  0  0
    6.4006   -2.7633    9.1909 Cl  0  0  0  0  0  0  0  0  0  0  0  0
    3.5968   -4.2577    9.8076 Cl  0  0  0  0  0  0  0  0  0  0  0  0
    6.7884   -2.0604    4.8748 C   0  0  0  0  0  0  0  0  0  0  0  0
    5.3100   -1.8212    3.9879 S   0  0  0  0  0  0  0  0  0  0  0  0
    8.7317   -3.9036    7.4953 C   0  0  0  0  0  0  0  0  0  0  0  0
   10.0610   -3.8053    7.6998 C   0  0  0  0  0  0  0  0  0  0  0  0
   10.8317   -2.6254    6.6991 S   0  0  0  0  0  0  0  0  0  0  0  0
    2.0830   -1.6756   10.8529 H   0  0  0  0  0  0  0  0  0  0  0  0
    2.5161   -0.0740    8.8571 H   0  0  0  0  0  0  0  0  0  0  0  0
    2.8257    4.2313    4.2543 H   0  0  0  0  0  0  0  0  0  0  0  0
    4.5343    3.8348    4.5264 H   0  0  0  0  0  0  0  0  0  0  0  0
    2.8019    2.6852    2.2796 H   0  0  0  0  0  0  0  0  0  0  0  0
    4.5132    2.3401    2.5479 H   0  0  0  0  0  0  0  0  0  0  0  0
    4.0034    3.9673    2.0888 H   0  0  0  0  0  0  0  0  0  0  0  0
   -5.0636   -6.9563    7.8340 H   0  0  0  0  0  0  0  0  0  0  0  0
   -4.3293   -6.9403    6.2188 H   0  0  0  0  0  0  0  0  0  0  0  0
   -3.6841   -8.9945    7.4577 H   0  0  0  0  0  0  0  0  0  0  0  0
   -2.2646   -7.9871    7.1504 H   0  0  0  0  0  0  0  0  0  0  0  0
   -3.0003   -8.0114    8.7563 H   0  0  0  0  0  0  0  0  0  0  0  0
   -3.1158   -2.4828    5.2203 H   0  0  0  0  0  0  0  0  0  0  0  0
   -4.5944   -2.1170    3.2149 H   0  0  0  0  0  0  0  0  0  0  0  0
   -9.7429   -5.6357    2.1721 H   0  0  0  0  0  0  0  0  0  0  0  0
  -10.5904   -4.1538    1.6873 H   0  0  0  0  0  0  0  0  0  0  0  0
   -9.3452   -4.6645    4.4334 H   0  0  0  0  0  0  0  0  0  0  0  0
  -11.0714   -4.7038    4.0609 H   0  0  0  0  0  0  0  0  0  0  0  0
  -10.1770   -3.1834    3.9489 H   0  0  0  0  0  0  0  0  0  0  0  0
   -1.0215    3.0235   -4.1303 H   0  0  0  0  0  0  0  0  0  0  0  0
    0.1301    3.6394   -2.9325 H   0  0  0  0  0  0  0  0  0  0  0  0
   -1.1090    5.8065   -2.8545 H   0  0  0  0  0  0  0  0  0  0  0  0
   -0.5429    5.4477   -4.4849 H   0  0  0  0  0  0  0  0  0  0  0  0
   -2.2420    5.2012   -4.0660 H   0  0  0  0  0  0  0  0  0  0  0  0
   -5.5866    1.8176   -2.6510 H   0  0  0  0  0  0  0  0  0  0  0  0
  -11.2858   -1.5649   -3.9407 H   0  0  0  0  0  0  0  0  0  0  0  0
  -10.0322   -2.8025   -4.2433 H   0  0  0  0  0  0  0  0  0  0  0  0
  -11.0707   -1.9758   -1.4855 H   0  0  0  0  0  0  0  0  0  0  0  0
   -9.8507   -3.2073   -1.7931 H   0  0  0  0  0  0  0  0  0  0  0  0
  -11.5179   -3.4621   -2.3430 H   0  0  0  0  0  0  0  0  0  0  0  0
  -10.0133   -1.1222   -5.8745 H   0  0  0  0  0  0  0  0  0  0  0  0
  -10.7382   -0.3475   -7.9375 H   0  0  0  0  0  0  0  0  0  0  0  0
   -9.6857   -1.7857   -8.0607 H   0  0  0  0  0  0  0  0  0  0  0  0
  -10.6959   -1.2135  -10.2693 H   0  0  0  0  0  0  0  0  0  0  0  0
   -8.9349   -1.0332  -10.3141 H   0  0  0  0  0  0  0  0  0  0  0  0
   -9.9600    0.3961  -10.1890 H   0  0  0  0  0  0  0  0  0  0  0  0
   -6.1598    1.6491   -4.6485 H   0  0  0  0  0  0  0  0  0  0  0  0
   -5.8856    2.4056   -6.7824 H   0  0  0  0  0  0  0  0  0  0  0  0
   -6.1569   -0.0566   -8.5700 H   0  0  0  0  0  0  0  0  0  0  0  0
   -3.6258   -0.7346   -8.9439 H   0  0  0  0  0  0  0  0  0  0  0  0
   -0.2827   -5.5543   -7.9601 H   0  0  0  0  0  0  0  0  0  0  0  0
   -0.5331   -5.7851   -9.7018 H   0  0  0  0  0  0  0  0  0  0  0  0
    1.7807   -4.9595  -10.1367 H   0  0  0  0  0  0  0  0  0  0  0  0
    2.0227   -4.7124   -8.4042 H   0  0  0  0  0  0  0  0  0  0  0  0
    1.8049   -6.3464   -9.0429 H   0  0  0  0  0  0  0  0  0  0  0  0
   -1.4185    8.7166   -6.4115 H   0  0  0  0  0  0  0  0  0  0  0  0
   -2.8969    7.8769   -5.9065 H   0  0  0  0  0  0  0  0  0  0  0  0
   -3.6476    7.7711   -8.2835 H   0  0  0  0  0  0  0  0  0  0  0  0
   -2.1832    8.6223   -8.7849 H   0  0  0  0  0  0  0  0  0  0  0  0
   -3.3763    9.4416   -7.7726 H   0  0  0  0  0  0  0  0  0  0  0  0
    1.0075    3.2496   -5.5751 H   0  0  0  0  0  0  0  0  0  0  0  0
    4.0211    2.2784   -4.3417 H   0  0  0  0  0  0  0  0  0  0  0  0
    6.8527    6.1404   -3.8920 H   0  0  0  0  0  0  0  0  0  0  0  0
    8.5183    5.5363   -3.9928 H   0  0  0  0  0  0  0  0  0  0  0  0
    8.8348    6.0045   -1.5661 H   0  0  0  0  0  0  0  0  0  0  0  0
    7.1768    6.6047   -1.4590 H   0  0  0  0  0  0  0  0  0  0  0  0
    8.3684    7.4689   -2.4370 H   0  0  0  0  0  0  0  0  0  0  0  0
    0.6285   -5.0888    1.2522 H   0  0  0  0  0  0  0  0  0  0  0  0
   -0.9929   -4.8082    0.5887 H   0  0  0  0  0  0  0  0  0  0  0  0
   -1.0512   -5.0441    3.0762 H   0  0  0  0  0  0  0  0  0  0  0  0
   -1.5966   -3.4472    2.5647 H   0  0  0  0  0  0  0  0  0  0  0  0
    0.0241   -3.6528    3.2332 H   0  0  0  0  0  0  0  0  0  0  0  0
    3.5431   -1.2269    1.8956 H   0  0  0  0  0  0  0  0  0  0  0  0
    8.0530    0.1525    2.6708 H   0  0  0  0  0  0  0  0  0  0  0  0
   13.4802    1.5284    1.8742 H   0  0  0  0  0  0  0  0  0  0  0  0
   13.0635    0.0235    1.0370 H   0  0  0  0  0  0  0  0  0  0  0  0
   10.9283    1.0381    0.2501 H   0  0  0  0  0  0  0  0  0  0  0  0
   11.3357    2.5464    1.0734 H   0  0  0  0  0  0  0  0  0  0  0  0
   12.3187    1.9882   -0.2834 H   0  0  0  0  0  0  0  0  0  0  0  0
    2.3176   -6.2618    6.8684 H   0  0  0  0  0  0  0  0  0  0  0  0
    1.6934   -4.9921    7.9269 H   0  0  0  0  0  0  0  0  0  0  0  0
    1.3969   -3.5123    5.8999 H   0  0  0  0  0  0  0  0  0  0  0  0
    0.4445   -4.9950    5.7886 H   0  0  0  0  0  0  0  0  0  0  0  0
    1.9538   -4.8395    4.8791 H   0  0  0  0  0  0  0  0  0  0  0  0
    8.1018   -4.6045    8.0108 H   0  0  0  0  0  0  0  0  0  0  0  0
   10.6635   -4.3639    8.3892 H   0  0  0  0  0  0  0  0  0  0  0  0
  1  2  2  0  0  0  0
  2  3  1  0  0  0  0
  3  4  2  0  0  0  0
  4  5  1  0  0  0  0
  5  6  1  0  0  0  0
  6  7  1  0  0  0  0
  7  8  1  0  0  0  0
  8  9  1  0  0  0  0
  7 10  2  0  0  0  0
 10 11  1  0  0  0  0
 10 12  1  0  0  0  0
 12 13  1  0  0  0  0
  4 14  1  0  0  0  0
 14 15  2  0  0  0  0
 15 16  1  0  0  0  0
 16 17  1  0  0  0  0
 17 18  1  0  0  0  0
 18 19  1  0  0  0  0
 19 20  1  0  0  0  0
 20 21  1  0  0  0  0
 19 22  2  0  0  0  0
 22 23  1  0  0  0  0
 23 24  1  0  0  0  0
 22 25  1  0  0  0  0
 16 26  2  0  0  0  0
 26 27  1  0  0  0  0
 15 28  1  0  0  0  0
 28 29  2  0  0  0  0
 29 30  1  0  0  0  0
 29 31  1  0  0  0  0
 31 32  2  0  0  0  0
 32 33  1  0  0  0  0
 33 34  2  0  0  0  0
 34 35  1  0  0  0  0
 35 36  1  0  0  0  0
 36 37  1  0  0  0  0
 37 38  1  0  0  0  0
 38 39  1  0  0  0  0
 37 40  2  0  0  0  0
 40 41  1  0  0  0  0
 40 42  1  0  0  0  0
 42 43  1  0  0  0  0
 34 44  1  0  0  0  0
 44 45  2  0  0  0  0
 45 46  1  0  0  0  0
 46 47  1  0  0  0  0
 47 48  1  0  0  0  0
 48 49  1  0  0  0  0
 49 50  1  0  0  0  0
 50 51  1  0  0  0  0
 49 52  2  0  0  0  0
 52 53  1  0  0  0  0
 53 54  1  0  0  0  0
 52 55  1  0  0  0  0
 46 56  2  0  0  0  0
 56 57  1  0  0  0  0
 45 58  1  0  0  0  0
 58 59  2  0  0  0  0
 59 60  1  0  0  0  0
 59 61  1  0  0  0  0
 61 62  2  0  0  0  0
 62 63  1  0  0  0  0
 63 64  1  0  0  0  0
 64 65  1  0  0  0  0
 62 66  1  0  0  0  0
 66 67  2  0  0  0  0
 67 68  1  0  0  0  0
 68 69  1  0  0  0  0
 69 70  1  0  0  0  0
 67 71  1  0  0  0  0
 71 72  2  0  0  0  0
 71 73  1  0  0  0  0
 73 74  2  0  0  0  0
 74 75  1  0  0  0  0
 75 76  2  0  0  0  0
 76 77  1  0  0  0  0
 77 78  2  0  0  0  0
 78 79  1  0  0  0  0
 79 80  1  0  0  0  0
 80 81  1  0  0  0  0
 81 82  1  0  0  0  0
 82 83  1  0  0  0  0
 81 84  2  0  0  0  0
 84 85  1  0  0  0  0
 84 86  1  0  0  0  0
 86 87  1  0  0  0  0
 78 88  1  0  0  0  0
 88 89  2  0  0  0  0
 89 90  1  0  0  0  0
 90 91  1  0  0  0  0
 91 92  1  0  0  0  0
 92 93  1  0  0  0  0
 93 94  1  0  0  0  0
 94 95  1  0  0  0  0
 93 96  2  0  0  0  0
 96 97  1  0  0  0  0
 97 98  1  0  0  0  0
 96 99  1  0  0  0  0
 90100  2  0  0  0  0
100101  1  0  0  0  0
 89102  1  0  0  0  0
102103  2  0  0  0  0
103104  1  0  0  0  0
103105  1  0  0  0  0
105106  2  0  0  0  0
106107  1  0  0  0  0
107108  2  0  0  0  0
108109  1  0  0  0  0
109110  1  0  0  0  0
110111  1  0  0  0  0
111112  1  0  0  0  0
112113  1  0  0  0  0
111114  2  0  0  0  0
114115  1  0  0  0  0
114116  1  0  0  0  0
116117  1  0  0  0  0
108118  1  0  0  0  0
118119  2  0  0  0  0
119120  1  0  0  0  0
120121  1  0  0  0  0
121122  1  0  0  0  0
122123  1  0  0  0  0
123124  1  0  0  0  0
124125  1  0  0  0  0
123126  2  0  0  0  0
126127  1  0  0  0  0
127128  1  0  0  0  0
126129  1  0  0  0  0
120130  2  0  0  0  0
130131  1  0  0  0  0
119132  1  0  0  0  0
132133  2  0  0  0  0
133134  1  0  0  0  0
133135  1  0  0  0  0
135136  2  0  0  0  0
136137  1  0  0  0  0
137138  2  0  0  0  0
138139  1  0  0  0  0
139140  1  0  0  0  0
140141  1  0  0  0  0
141142  1  0  0  0  0
142143  1  0  0  0  0
141144  2  0  0  0  0
144145  1  0  0  0  0
144146  1  0  0  0  0
146147  1  0  0  0  0
138148  1  0  0  0  0
148149  2  0  0  0  0
149150  1  0  0  0  0
150151  1  0  0  0  0
151152  1  0  0  0  0
152153  1  0  0  0  0
153154  1  0  0  0  0
154155  1  0  0  0  0
153156  2  0  0  0  0
156157  1  0  0  0  0
157158  1  0  0  0  0
156159  1  0  0  0  0
150160  2  0  0  0  0
160161  1  0  0  0  0
149162  1  0  0  0  0
162163  2  0  0  0  0
163164  1  0  0  0  0
 27  1  1  0  0  0  0
 57 31  1  0  0  0  0
 72 61  1  0  0  0  0
101 75  1  0  0  0  0
131105  1  0  0  0  0
161135  1  0  0  0  0
 26  3  1  0  0  0  0
 56 33  1  0  0  0  0
100 77  1  0  0  0  0
130107  1  0  0  0  0
160137  1  0  0  0  0
 12  5  2  0  0  0  0
 30 14  1  0  0  0  0
 42 35  2  0  0  0  0
 60 44  1  0  0  0  0
 86 79  2  0  0  0  0
104 88  1  0  0  0  0
116109  2  0  0  0  0
134118  1  0  0  0  0
146139  2  0  0  0  0
164148  1  0  0  0  0
 23 17  2  0  0  0  0
 53 47  2  0  0  0  0
 97 91  2  0  0  0  0
127121  2  0  0  0  0
157151  2  0  0  0  0
  1165  1  0  0  0  0
  2166  1  0  0  0  0
  8167  1  0  0  0  0
  8168  1  0  0  0  0
  9169  1  0  0  0  0
  9170  1  0  0  0  0
  9171  1  0  0  0  0
 20172  1  0  0  0  0
 20173  1  0  0  0  0
 21174  1  0  0  0  0
 21175  1  0  0  0  0
 21176  1  0  0  0  0
 28177  1  0  0  0  0
 32178  1  0  0  0  0
 38179  1  0  0  0  0
 38180  1  0  0  0  0
 39181  1  0  0  0  0
 39182  1  0  0  0  0
 39183  1  0  0  0  0
 50184  1  0  0  0  0
 50185  1  0  0  0  0
 51186  1  0  0  0  0
 51187  1  0  0  0  0
 51188  1  0  0  0  0
 58189  1  0  0  0  0
 64190  1  0  0  0  0
 64191  1  0  0  0  0
 65192  1  0  0  0  0
 65193  1  0  0  0  0
 65194  1  0  0  0  0
 66195  1  0  0  0  0
 69196  1  0  0  0  0
 69197  1  0  0  0  0
 70198  1  0  0  0  0
 70199  1  0  0  0  0
 70200  1  0  0  0  0
 72201  1  0  0  0  0
 73202  1  0  0  0  0
 74203  1  0  0  0  0
 76204  1  0  0  0  0
 82205  1  0  0  0  0
 82206  1  0  0  0  0
 83207  1  0  0  0  0
 83208  1  0  0  0  0
 83209  1  0  0  0  0
 94210  1  0  0  0  0
 94211  1  0  0  0  0
 95212  1  0  0  0  0
 95213  1  0  0  0  0
 95214  1  0  0  0  0
102215  1  0  0  0  0
106216  1  0  0  0  0
112217  1  0  0  0  0
112218  1  0  0  0  0
113219  1  0  0  0  0
113220  1  0  0  0  0
113221  1  0  0  0  0
124222  1  0  0  0  0
124223  1  0  0  0  0
125224  1  0  0  0  0
125225  1  0  0  0  0
125226  1  0  0  0  0
132227  1  0  0  0  0
136228  1  0  0  0  0
142229  1  0  0  0  0
142230  1  0  0  0  0
143231  1  0  0  0  0
143232  1  0  0  0  0
143233  1  0  0  0  0
154234  1  0  0  0  0
154235  1  0  0  0  0
155236  1  0  0  0  0
155237  1  0  0  0  0
155238  1  0  0  0  0
162239  1  0  0  0  0
163240  1  0  0  0  0
M  END
