240

C          1.56450       -1.66580        9.91420
C          1.78250       -0.85780        8.85740
C          0.90310       -1.11860        7.76560
C          0.86950       -0.51300        6.49640
C          1.90630        0.39800        6.04480
S          1.52310        1.83670        5.14080
C          3.18640        2.26250        4.94430
C          3.58410        3.45450        4.14660
C          3.73450        3.08810        2.66810
C          3.98550        1.33400        5.54150
Cl         5.70370        1.40710        5.55140
C          3.26620        0.28370        6.16990
Cl         4.07640       -1.02200        6.92480
C         -0.21100       -0.84020        5.67980
C         -1.19760       -1.78760        6.04360
C         -1.09070       -2.48020        7.26050
C         -2.04620       -3.51830        7.61020
S         -2.30810       -4.87380        6.54940
C         -3.48590       -5.57680        7.60490
C         -4.12080       -6.88560        7.28890
C         -3.20720       -8.04620        7.68960
C         -3.65120       -4.79810        8.71040
C         -2.84240       -3.62830        8.71470
Cl        -2.94350       -2.44870        9.95340
Cl        -4.73930       -5.16500        9.98550
C         -0.04500       -2.11790        8.09970
S          0.27110       -2.78570        9.67510
C         -2.24930       -1.86070        5.09510
C         -2.07920       -1.01780        4.03810
S         -0.56580       -0.14080        4.12690
C         -2.96540       -0.73990        2.95340
C         -4.15720       -1.32490        2.63630
C         -4.75150       -0.78710        1.46660
C         -5.90470       -1.22470        0.78970
C         -6.66310       -2.37920        1.24190
S         -8.38850       -2.29240        1.44010
C         -8.49670       -3.95020        1.92600
C         -9.79840       -4.55570        2.32150
C        -10.11920       -4.25710        3.78790
C         -7.25970       -4.52140        1.93460
Cl        -6.96350       -6.15690        2.36520
C         -6.21940       -3.63830        1.53930
Cl        -4.59360       -4.16170        1.36890
C         -6.25950       -0.54410       -0.36850
C         -5.50410        0.53460       -0.88630
C         -4.34650        0.97310       -0.22160
C         -3.47330        1.99830       -0.76380
S         -2.91890        1.93410       -2.41590
C         -1.80030        3.23100       -2.17980
C         -0.90680        3.69520       -3.27780
C         -1.22180        5.13110       -3.69730
C         -1.89070        3.70450       -0.90530
C         -2.84350        3.02070       -0.10580
Cl        -3.21500        3.53230        1.48710
Cl        -0.91930        4.97060       -0.27630
C         -3.99690        0.29260        0.94010
S         -2.54990        0.55380        1.86000
C         -6.02060        0.99150       -2.12090
C         -7.08880        0.27610       -2.57790
S         -7.57710       -0.95390       -1.43350
C         -7.66220        0.33440       -3.90320
C         -8.77310       -0.44980       -4.27510
O         -9.39070       -1.09950       -3.26420
C        -10.39670       -2.05750       -3.52290
C        -10.73490       -2.72350       -2.19810
C         -9.15710       -0.52400       -5.61000
C         -8.43140        0.11950       -6.60970
O         -8.70520        0.03070       -7.93070
C         -9.80740       -0.73830       -8.37120
C         -9.85450       -0.64230       -9.88790
C         -7.33830        0.92950       -6.25080
C         -7.01610        1.04770       -4.90600
C         -6.35500        1.50240       -7.15460
C         -5.76750        0.87410       -8.18480
C         -4.42020        1.21950       -8.55220
C         -3.42850        0.30450       -8.75160
C         -2.13390        0.79890       -8.44490
C         -0.97760        0.02690       -8.21910
C         -0.87780       -1.32180       -8.72750
S         -0.22810       -2.63890       -7.79540
C         -0.45080       -3.76860       -9.08760
C         -0.01480       -5.18530       -8.95180
C          1.49830       -5.30920       -9.14680
C         -0.98530       -3.14570      -10.17630
Cl        -1.33310       -3.93800      -11.65920
C         -1.23500       -1.76360       -9.97660
Cl        -1.83480       -0.75390      -11.22710
C         -0.01480        0.61210       -7.39920
C         -0.02950        1.98240       -7.05590
C         -1.06040        2.82110       -7.53190
C         -1.00280        4.25330       -7.35170
S         -2.40630        5.20680       -6.96620
C         -1.50690        6.68470       -6.96900
C         -2.17410        7.99060       -6.71640
C         -2.89270        8.48920       -7.97220
C         -0.20140        6.44340       -7.27930
C          0.09040        5.07150       -7.49500
Cl         1.64820        4.54510       -7.98860
Cl         0.99750        7.66740       -7.39590
C         -2.15610        2.16770       -8.09110
S         -3.76630        2.81870       -8.23590
C          0.91590        2.28280       -6.03490
C          1.58900        1.19180       -5.58820
S          1.21190       -0.24800       -6.51630
C          2.28380        1.02570       -4.33150
C          3.39330        1.59430       -3.80060
C          3.66450        1.16070       -2.46980
C          4.79760        1.42820       -1.68360
C          5.86110        2.30800       -2.14400
S          5.52710        3.95280       -2.60230
C          7.19380        4.28710       -2.92490
C          7.65040        5.64250       -3.33870
C          8.03240        6.48560       -2.11950
C          7.95150        3.18050       -2.68390
Cl         9.65390        3.12560       -2.88710
C          7.20090        2.05570       -2.24760
Cl         7.92620        0.52670       -1.97620
C          4.87300        0.79290       -0.44980
C          3.84890       -0.04640        0.05590
C          2.70470       -0.30230       -0.71810
C          1.63580       -1.17020       -0.25860
S          1.95330       -2.72200        0.46830
C          0.27400       -3.11520        0.57260
C         -0.19810       -4.37900        1.20340
C         -0.73940       -4.11310        2.61090
C         -0.48080       -2.09520        0.07480
C          0.28270       -0.98600       -0.37340
Cl        -0.45340        0.47580       -0.86910
Cl        -2.18960       -2.16730       -0.07170
C          2.66960        0.27730       -1.98500
S          1.48530       -0.05860       -3.20630
C          4.17540       -0.56680        1.33120
C          5.40960       -0.19310        1.77070
S          6.20440        0.90720        0.66520
C          6.10520       -0.70070        2.90540
C          7.41570       -0.51340        3.22330
C          7.84480       -1.29510        4.32410
C          9.13440       -1.36640        4.87700
C         10.22930       -0.59460        4.31420
S         10.58310       -0.66430        2.61150
C         11.89720        0.45320        2.75480
C         12.65200        0.89610        1.55030
C         11.74980        1.66740        0.58510
C         12.04430        0.84170        4.05250
Cl        13.23880        1.94820        4.59530
C         11.10640        0.24570        4.94020
Cl        11.04550        0.63330        6.60810
C          9.31290       -2.24320        5.94020
C          8.25740       -3.00840        6.49250
C          6.95210       -2.88040        5.98790
C          5.82010       -3.52740        6.62540
S          4.55730       -4.28530        5.70040
C          3.58440       -4.57120        7.10380
C          2.22870       -5.17860        6.99340
C          1.45480       -4.59500        5.81410
C          4.23020       -4.12950        8.21920
C          5.49170       -3.53230        7.95550
Cl         6.40060       -2.76330        9.19090
Cl         3.59680       -4.25770        9.80760
C          6.78840       -2.06040        4.87480
S          5.31000       -1.82120        3.98790
C          8.73170       -3.90360        7.49530
C         10.06100       -3.80530        7.69980
S         10.83170       -2.62540        6.69910
H          2.08300       -1.67560       10.85290
H          2.51610       -0.07400        8.85710
H          2.82570        4.23130        4.25430
H          4.53430        3.83480        4.52640
H          2.80190        2.68520        2.27960
H          4.51320        2.34010        2.54790
H          4.00340        3.96730        2.08880
H         -5.06360       -6.95630        7.83400
H         -4.32930       -6.94030        6.21880
H         -3.68410       -8.99450        7.45770
H         -2.26460       -7.98710        7.15040
H         -3.00030       -8.01140        8.75630
H         -3.11580       -2.48280        5.22030
H         -4.59440       -2.11700        3.21490
H         -9.74290       -5.63570        2.17210
H        -10.59040       -4.15380        1.68730
H         -9.34520       -4.66450        4.43340
H        -11.07140       -4.70380        4.06090
H        -10.17700       -3.18340        3.94890
H         -1.02150        3.02350       -4.13030
H          0.13010        3.63940       -2.93250
H         -1.10900        5.80650       -2.85450
H         -0.54290        5.44770       -4.48490
H         -2.24200        5.20120       -4.06600
H         -5.58660        1.81760       -2.65100
H        -11.28580       -1.56490       -3.94070
H        -10.03220       -2.80250       -4.24330
H        -11.07070       -1.97580       -1.48550
H         -9.85070       -3.20730       -1.79310
H        -11.51790       -3.46210       -2.34300
H        -10.01330       -1.12220       -5.87450
H        -10.73820       -0.34750       -7.93750
H         -9.68570       -1.78570       -8.06070
H        -10.69590       -1.21350      -10.26930
H         -8.93490       -1.03320      -10.31410
H         -9.96000        0.39610      -10.18900
H         -6.15980        1.64910       -4.64850
H         -5.88560        2.40560       -6.78240
H         -6.15690       -0.05660       -8.57000
H         -3.62580       -0.73460       -8.94390
H         -0.28270       -5.55430       -7.96010
H         -0.53310       -5.78510       -9.70180
H          1.78070       -4.95950      -10.13670
H          2.02270       -4.71240       -8.40420
H          1.80490       -6.34640       -9.04290
H         -1.41850        8.71660       -6.41150
H         -2.89690        7.87690       -5.90650
H         -3.64760        7.77110       -8.28350
H         -2.18320        8.62230       -8.78490
H         -3.37630        9.44160       -7.77260
H          1.00750        3.24960       -5.57510
H          4.02110        2.27840       -4.34170
H          6.85270        6.14040       -3.89200
H          8.51830        5.53630       -3.99280
H          8.83480        6.00450       -1.56610
H          7.17680        6.60470       -1.45900
H          8.36840        7.46890       -2.43700
H          0.62850       -5.08880        1.25220
H         -0.99290       -4.80820        0.58870
H         -1.05120       -5.04410        3.07620
H         -1.59660       -3.44720        2.56470
H          0.02410       -3.65280        3.23320
H          3.54310       -1.22690        1.89560
H          8.05300        0.15250        2.67080
H         13.48020        1.52840        1.87420
H         13.06350        0.02350        1.03700
H         10.92830        1.03810        0.25010
H         11.33570        2.54640        1.07340
H         12.31870        1.98820       -0.28340
H          2.31760       -6.26180        6.86840
H          1.69340       -4.99210        7.92690
H          1.39690       -3.51230        5.89990
H          0.44450       -4.99500        5.78860
H          1.95380       -4.83950        4.87910
H          8.10180       -4.60450        8.01080
H         10.66350       -4.36390        8.38920
