255

C          4.76490       -4.45870       12.86180
C          5.85030       -3.98680       12.21540
C          5.60950       -3.74850       10.83080
C          6.48860       -3.21450        9.87480
C          7.80780       -2.72720       10.24290
S          9.23720       -3.25260        9.40600
C         10.26430       -2.24590       10.36830
C         11.72820       -2.17110       10.10870
C         12.02320       -1.22120        8.94520
C          9.52670       -1.54230       11.27310
Cl        10.19410       -0.42750       12.39460
C          8.13400       -1.81640       11.20920
Cl         6.98720       -1.00730       12.19760
C          6.02960       -3.14560        8.56570
C          4.72200       -3.53820        8.19710
C          3.81380       -3.99420        9.16430
C          2.42540       -4.24340        8.80940
S          1.48830       -2.97780        8.06400
C          0.05180       -3.94140        8.05210
C         -1.24450       -3.36230        7.60780
C         -1.87680       -2.52760        8.72420
C          0.30430       -5.17380        8.57660
C          1.64840       -5.34910        9.00740
Cl         2.22900       -6.82980        9.64430
Cl        -0.87170       -6.41650        8.71430
C          4.28930       -4.10960       10.46420
S          3.38260       -4.65970       11.84300
C          4.50310       -3.40420        6.80550
C          5.57000       -2.88930        6.13650
S          6.91860       -2.53770        7.19320
C          5.59480       -2.63670        4.73010
C          6.22810       -1.65650        4.03120
C          5.86580       -1.62870        2.65850
C          6.19900       -0.66070        1.69500
C          7.07230        0.45590        2.02040
S          8.67770        0.19790        2.63370
C          9.00150        1.89740        2.72150
C         10.30180        2.40150        3.24250
C         10.42540        2.15970        4.74810
C          7.91550        2.60740        2.30560
Cl         7.84720        4.32160        2.25640
C          6.82120        1.79370        1.90360
Cl         5.31640        2.44790        1.40880
C          5.63590       -0.80320        0.43380
C          4.75430       -1.86220        0.10580
C          4.34600       -2.77470        1.09170
C          3.26880       -3.71760        0.85280
S          3.38320       -5.38590        1.32060
C          1.76260       -5.72160        0.82080
C          1.18520       -7.08960        0.92620
C          1.39170       -7.87650       -0.37010
C          1.18350       -4.59850        0.31000
C          2.02880       -3.45830        0.33150
Cl         1.48010       -1.90820       -0.17100
Cl        -0.42250       -4.53870       -0.28850
C          4.94590       -2.65640        2.33730
S          4.57900       -3.63960        3.71800
C          4.35490       -1.81810       -1.24870
C          4.83560       -0.73540       -1.92380
S          5.88580        0.25160       -0.93090
C          4.38110       -0.30930       -3.20760
C          4.31870        0.96180       -3.69550
C          3.45980        1.08680       -4.81770
C          2.93060        2.27770       -5.34480
C          3.38740        3.57140       -4.85100
S          5.00880        4.13260       -5.11530
C          4.72590        5.59740       -4.23550
C          5.78040        6.64110       -4.11370
C          5.76250        7.57910       -5.32300
C          3.44410        5.63310       -3.77450
Cl         2.79460        6.91960       -2.84610
C          2.68400        4.48290       -4.11680
Cl         1.07380        4.24120       -3.58470
C          1.85770        2.16110       -6.21400
C          1.33850        0.90830       -6.62850
C          1.88710       -0.28540       -6.13230
C          1.27250       -1.57750       -6.38890
S         -0.42840       -1.82310       -6.11340
C         -0.33000       -3.50960       -6.48210
C         -1.53500       -4.37740       -6.38220
C         -1.87980       -4.66850       -4.91990
C          0.95260       -3.84920       -6.79380
C          1.86370       -2.75940       -6.73730
Cl         3.52230       -2.91990       -7.13760
Cl         1.44780       -5.43580       -7.22200
C          2.92210       -0.16140       -5.21440
S          3.50710       -1.45210       -4.20810
C          0.13860        1.05190       -7.36090
C         -0.31390        2.33860       -7.41780
S          0.85100        3.47490       -6.76500
C         -1.69060        2.68890       -7.55560
C         -2.30700        3.75400       -6.96640
C         -3.68930        3.54600       -6.72970
C         -4.56600        4.33550       -5.96420
C         -4.15780        5.61470       -5.40950
S         -2.67590        5.79130       -4.51580
C         -2.95360        7.47440       -4.22170
C         -1.97720        8.29800       -3.45520
C         -0.53580        7.98820       -3.84810
C         -4.13270        7.85960       -4.78630
Cl        -4.75190        9.45950       -4.71710
C         -4.81980        6.81010       -5.45460
Cl        -6.28590        7.06950       -6.30270
C         -5.81710        3.79290       -5.68840
C         -6.24340        2.54160       -6.18900
C         -5.38610        1.77360       -6.98880
C         -5.76030        0.44270       -7.44810
S         -7.14000        0.19080       -8.47190
C         -6.85610       -1.51260       -8.57030
C         -7.72200       -2.39300       -9.40110
C         -7.30640       -2.34160      -10.87320
C         -5.75100       -1.84840       -7.84870
C         -5.13570       -0.74660       -7.19590
Cl        -3.80340       -0.93910       -6.12730
Cl        -5.14050       -3.44770       -7.72480
C         -4.12240        2.29240       -7.22850
S         -2.83350        1.44970       -8.03880
C         -7.48800        2.13670       -5.63190
C         -7.96880        2.98500       -4.69690
S         -6.96680        4.41840       -4.54270
C         -9.18140        2.87020       -3.82610
C         -9.93740        1.54490       -3.98010
C         -9.21210        0.32880       -3.38320
C         -7.98440        0.72360       -2.54890
C         -8.42950        1.82980       -1.59110
C         -8.83820        3.10810       -2.34160
N         -7.31740       -0.38600       -1.89090
C         -7.76430       -0.84760       -0.59570
C         -8.99080       -1.76880       -0.51080
C         -6.74670       -1.33020       -2.83880
C         -7.77810       -2.04590       -3.72810
S         -8.71620       -0.82490       -4.71950
C         -7.11440       -2.97350       -4.73660
C         -6.20480       -3.98410       -4.05410
C         -5.16110       -3.24600       -3.22870
C         -5.84190       -2.37300       -2.16040
C         -4.77920       -1.72650       -1.32930
C         -4.15580       -2.34150       -0.32160
C         -3.05510       -1.79130        0.41770
C         -2.28780       -2.43180        1.34290
C         -1.22390       -1.64410        1.85570
C         -0.25120       -1.99730        2.81110
C         -0.32540       -3.24970        3.53680
S          1.09040       -4.23170        3.78380
C          0.20030       -5.46230        4.61110
C          0.85190       -6.70570        5.11010
C          2.32230       -6.49730        5.44890
C         -1.11420       -5.11260        4.69530
Cl        -2.31340       -6.09870        5.43030
C         -1.41430       -3.85550        4.10690
Cl        -2.97270       -3.14460        4.24600
C          0.79570       -1.09650        2.99420
C          0.85230        0.16150        2.35270
C         -0.20730        0.58140        1.53100
C         -0.31220        1.95260        1.06720
S         -0.80310        2.36590       -0.55000
C         -0.85420        4.05610       -0.19010
C         -1.37880        5.04860       -1.16700
C         -2.86710        5.29580       -0.90520
C         -0.48990        4.27560        1.10510
C         -0.18190        3.09020        1.82110
Cl         0.18120        3.11310        3.49890
Cl        -0.42990        5.83170        1.82530
C         -1.19110       -0.36250        1.25360
S         -2.51370       -0.14850        0.14350
C          2.06840        0.84870        2.64180
C          2.86190        0.17360        3.49530
S          2.18770       -1.33370        4.01410
H          4.67790       -4.71720       13.89900
H          6.80030       -3.82030       12.68840
H         12.10640       -3.16630        9.86880
H         12.22730       -1.81390       11.01110
H         13.09330       -1.17560        8.76240
H         11.52710       -1.56790        8.04180
H         11.66570       -0.22080        9.17600
H         -1.07940       -2.72990        6.73360
H         -1.92040       -4.17270        7.33470
H         -2.82270       -2.11340        8.38590
H         -1.21740       -1.70980        9.00550
H         -2.05970       -3.14480        9.60050
H          3.58560       -3.66210        6.30920
H          6.89190       -0.94760        4.49200
H         10.36860        3.46980        3.03100
H         11.12070        1.89340        2.72840
H         10.36310        1.09590        4.96550
H         11.37910        2.53480        5.10920
H          9.62670        2.67080        5.27990
H          1.66400       -7.61660        1.75240
H          0.11640       -7.00350        1.13360
H          2.45270       -7.97280       -0.58700
H          0.96250       -8.87030       -0.27640
H          0.91150       -7.36610       -1.20070
H          3.71170       -2.54740       -1.70600
H          4.79130        1.79680       -3.20960
H          6.75820        6.16230       -4.03920
H          5.60130        7.21570       -3.20290
H          4.79650        8.07120       -5.40360
H          5.94500        7.01940       -6.23730
H          6.53310        8.33790       -5.21810
H         -1.34050       -5.31160       -6.91140
H         -2.38180       -3.87680       -6.85550
H         -2.76750       -5.29270       -4.86370
H         -2.07250       -3.74050       -4.38650
H         -1.05700       -5.18480       -4.43120
H         -0.43630        0.22530       -7.73540
H         -1.75760        4.60930       -6.61890
H         -2.20250        9.35050       -3.63770
H         -2.10570        8.11130       -2.38440
H         -0.30640        6.94260       -3.65760
H          0.14950        8.60450       -3.27230
H         -0.37730        8.18840       -4.90500
H         -8.76020       -2.07120       -9.30430
H         -7.63850       -3.41670       -9.03130
H         -7.94820       -2.98830      -11.46530
H         -7.38800       -1.32570      -11.25240
H         -6.27720       -2.67310      -10.98690
H         -7.95380        1.20480       -5.89110
H         -9.86290        3.67350       -4.13740
H        -10.15210        1.36310       -5.03470
H        -10.89650        1.66140       -3.47100
H         -9.90660       -0.24060       -2.76060
H         -7.23490        1.14430       -3.23320
H         -7.61550        2.05610       -0.90230
H         -9.27960        1.46890       -1.00900
H         -9.70930        3.54040       -1.84680
H         -8.03720        3.84620       -2.28290
H         -7.96270        0.03690        0.01060
H         -6.91780       -1.35660       -0.12670
H         -9.87380       -1.30450       -0.94300
H         -9.19880       -1.97590        0.53690
H         -8.81580       -2.71820       -1.01080
H         -6.11240       -0.73210       -3.51360
H         -8.50650       -2.59070       -3.12330
H         -7.88370       -3.47790       -5.32540
H         -6.52190       -2.36180       -5.41810
H         -5.71670       -4.60120       -4.81020
H         -6.79270       -4.64150       -3.40880
H         -4.49490       -3.95550       -2.73400
H         -4.55660       -2.61460       -3.88210
H         -6.44730       -3.03940       -1.53740
H         -4.47230       -0.73280       -1.62510
H         -4.44950       -3.34140       -0.02500
H         -2.44990       -3.45810        1.61610
H          0.30620       -7.04820        5.99240
H          0.76100       -7.48560        4.34670
H          2.42600       -5.76210        6.24230
H          2.76410       -7.42990        5.78870
H          2.87150       -6.14690        4.57710
H         -0.82400        5.98300       -1.06080
H         -1.24900        4.67290       -2.18180
H         -3.42120        4.36450       -0.99550
H         -3.01350        5.69230        0.09630
H         -3.26590        6.00520       -1.62460
H          2.33430        1.79030        2.19770
H          3.82670        0.45660        3.86850
