
  xtb     03022202273D
 energy: -476.723320068089 gnorm: 0.000430313051 xtb: 6.4.1 (unknown)
255282  0     0  0            999 V2000
    4.7649   -4.4587   12.8618 C   0  0  0  0  0  0  0  0  0  0  0  0
    5.8503   -3.9868   12.2154 C   0  0  0  0  0  0  0  0  0  0  0  0
    5.6095   -3.7485   10.8308 C   0  0  0  0  0  0  0  0  0  0  0  0
    6.4886   -3.2145    9.8748 C   0  0  0  0  0  0  0  0  0  0  0  0
    7.8078   -2.7272   10.2429 C   0  0  0  0  0  0  0  0  0  0  0  0
    9.2372   -3.2526    9.4060 S   0  0  0  0  0  0  0  0  0  0  0  0
   10.2643   -2.2459   10.3683 C   0  0  0  0  0  0  0  0  0  0  0  0
   11.7282   -2.1711   10.1087 C   0  0  0  0  0  0  0  0  0  0  0  0
   12.0232   -1.2212    8.9452 C   0  0  0  0  0  0  0  0  0  0  0  0
    9.5267   -1.5423   11.2731 C   0  0  0  0  0  0  0  0  0  0  0  0
   10.1941   -0.4275   12.3946 Cl  0  0  0  0  0  0  0  0  0  0  0  0
    8.1340   -1.8164   11.2092 C   0  0  0  0  0  0  0  0  0  0  0  0
    6.9872   -1.0073   12.1976 Cl  0  0  0  0  0  0  0  0  0  0  0  0
    6.0296   -3.1456    8.5657 C   0  0  0  0  0  0  0  0  0  0  0  0
    4.7220   -3.5382    8.1971 C   0  0  0  0  0  0  0  0  0  0  0  0
    3.8138   -3.9942    9.1643 C   0  0  0  0  0  0  0  0  0  0  0  0
    2.4254   -4.2434    8.8094 C   0  0  0  0  0  0  0  0  0  0  0  0
    1.4883   -2.9778    8.0640 S   0  0  0  0  0  0  0  0  0  0  0  0
    0.0518   -3.9414    8.0521 C   0  0  0  0  0  0  0  0  0  0  0  0
   -1.2445   -3.3623    7.6078 C   0  0  0  0  0  0  0  0  0  0  0  0
   -1.8768   -2.5276    8.7242 C   0  0  0  0  0  0  0  0  0  0  0  0
    0.3043   -5.1738    8.5766 C   0  0  0  0  0  0  0  0  0  0  0  0
    1.6484   -5.3491    9.0074 C   0  0  0  0  0  0  0  0  0  0  0  0
    2.2290   -6.8298    9.6443 Cl  0  0  0  0  0  0  0  0  0  0  0  0
   -0.8717   -6.4165    8.7143 Cl  0  0  0  0  0  0  0  0  0  0  0  0
    4.2893   -4.1096   10.4642 C   0  0  0  0  0  0  0  0  0  0  0  0
    3.3826   -4.6597   11.8430 S   0  0  0  0  0  0  0  0  0  0  0  0
    4.5031   -3.4042    6.8055 C   0  0  0  0  0  0  0  0  0  0  0  0
    5.5700   -2.8893    6.1365 C   0  0  0  0  0  0  0  0  0  0  0  0
    6.9186   -2.5377    7.1932 S   0  0  0  0  0  0  0  0  0  0  0  0
    5.5948   -2.6367    4.7301 C   0  0  0  0  0  0  0  0  0  0  0  0
    6.2281   -1.6565    4.0312 C   0  0  0  0  0  0  0  0  0  0  0  0
    5.8658   -1.6287    2.6585 C   0  0  0  0  0  0  0  0  0  0  0  0
    6.1990   -0.6607    1.6950 C   0  0  0  0  0  0  0  0  0  0  0  0
    7.0723    0.4559    2.0204 C   0  0  0  0  0  0  0  0  0  0  0  0
    8.6777    0.1979    2.6337 S   0  0  0  0  0  0  0  0  0  0  0  0
    9.0015    1.8974    2.7215 C   0  0  0  0  0  0  0  0  0  0  0  0
   10.3018    2.4015    3.2425 C   0  0  0  0  0  0  0  0  0  0  0  0
   10.4254    2.1597    4.7481 C   0  0  0  0  0  0  0  0  0  0  0  0
    7.9155    2.6074    2.3056 C   0  0  0  0  0  0  0  0  0  0  0  0
    7.8472    4.3216    2.2564 Cl  0  0  0  0  0  0  0  0  0  0  0  0
    6.8212    1.7937    1.9036 C   0  0  0  0  0  0  0  0  0  0  0  0
    5.3164    2.4479    1.4088 Cl  0  0  0  0  0  0  0  0  0  0  0  0
    5.6359   -0.8032    0.4338 C   0  0  0  0  0  0  0  0  0  0  0  0
    4.7543   -1.8622    0.1058 C   0  0  0  0  0  0  0  0  0  0  0  0
    4.3460   -2.7747    1.0917 C   0  0  0  0  0  0  0  0  0  0  0  0
    3.2688   -3.7176    0.8528 C   0  0  0  0  0  0  0  0  0  0  0  0
    3.3832   -5.3859    1.3206 S   0  0  0  0  0  0  0  0  0  0  0  0
    1.7626   -5.7216    0.8208 C   0  0  0  0  0  0  0  0  0  0  0  0
    1.1852   -7.0896    0.9262 C   0  0  0  0  0  0  0  0  0  0  0  0
    1.3917   -7.8765   -0.3701 C   0  0  0  0  0  0  0  0  0  0  0  0
    1.1835   -4.5985    0.3100 C   0  0  0  0  0  0  0  0  0  0  0  0
    2.0288   -3.4583    0.3315 C   0  0  0  0  0  0  0  0  0  0  0  0
    1.4801   -1.9082   -0.1710 Cl  0  0  0  0  0  0  0  0  0  0  0  0
   -0.4225   -4.5387   -0.2885 Cl  0  0  0  0  0  0  0  0  0  0  0  0
    4.9459   -2.6564    2.3373 C   0  0  0  0  0  0  0  0  0  0  0  0
    4.5790   -3.6396    3.7180 S   0  0  0  0  0  0  0  0  0  0  0  0
    4.3549   -1.8181   -1.2487 C   0  0  0  0  0  0  0  0  0  0  0  0
    4.8356   -0.7354   -1.9238 C   0  0  0  0  0  0  0  0  0  0  0  0
    5.8858    0.2516   -0.9309 S   0  0  0  0  0  0  0  0  0  0  0  0
    4.3811   -0.3093   -3.2076 C   0  0  0  0  0  0  0  0  0  0  0  0
    4.3187    0.9618   -3.6955 C   0  0  0  0  0  0  0  0  0  0  0  0
    3.4598    1.0868   -4.8177 C   0  0  0  0  0  0  0  0  0  0  0  0
    2.9306    2.2777   -5.3448 C   0  0  0  0  0  0  0  0  0  0  0  0
    3.3874    3.5714   -4.8510 C   0  0  0  0  0  0  0  0  0  0  0  0
    5.0088    4.1326   -5.1153 S   0  0  0  0  0  0  0  0  0  0  0  0
    4.7259    5.5974   -4.2355 C   0  0  0  0  0  0  0  0  0  0  0  0
    5.7804    6.6411   -4.1137 C   0  0  0  0  0  0  0  0  0  0  0  0
    5.7625    7.5791   -5.3230 C   0  0  0  0  0  0  0  0  0  0  0  0
    3.4441    5.6331   -3.7745 C   0  0  0  0  0  0  0  0  0  0  0  0
    2.7946    6.9196   -2.8461 Cl  0  0  0  0  0  0  0  0  0  0  0  0
    2.6840    4.4829   -4.1168 C   0  0  0  0  0  0  0  0  0  0  0  0
    1.0738    4.2412   -3.5847 Cl  0  0  0  0  0  0  0  0  0  0  0  0
    1.8577    2.1611   -6.2140 C   0  0  0  0  0  0  0  0  0  0  0  0
    1.3385    0.9083   -6.6285 C   0  0  0  0  0  0  0  0  0  0  0  0
    1.8871   -0.2854   -6.1323 C   0  0  0  0  0  0  0  0  0  0  0  0
    1.2725   -1.5775   -6.3889 C   0  0  0  0  0  0  0  0  0  0  0  0
   -0.4284   -1.8231   -6.1134 S   0  0  0  0  0  0  0  0  0  0  0  0
   -0.3300   -3.5096   -6.4821 C   0  0  0  0  0  0  0  0  0  0  0  0
   -1.5350   -4.3774   -6.3822 C   0  0  0  0  0  0  0  0  0  0  0  0
   -1.8798   -4.6685   -4.9199 C   0  0  0  0  0  0  0  0  0  0  0  0
    0.9526   -3.8492   -6.7938 C   0  0  0  0  0  0  0  0  0  0  0  0
    1.8637   -2.7594   -6.7373 C   0  0  0  0  0  0  0  0  0  0  0  0
    3.5223   -2.9199   -7.1376 Cl  0  0  0  0  0  0  0  0  0  0  0  0
    1.4478   -5.4358   -7.2220 Cl  0  0  0  0  0  0  0  0  0  0  0  0
    2.9221   -0.1614   -5.2144 C   0  0  0  0  0  0  0  0  0  0  0  0
    3.5071   -1.4521   -4.2081 S   0  0  0  0  0  0  0  0  0  0  0  0
    0.1386    1.0519   -7.3609 C   0  0  0  0  0  0  0  0  0  0  0  0
   -0.3139    2.3386   -7.4178 C   0  0  0  0  0  0  0  0  0  0  0  0
    0.8510    3.4749   -6.7650 S   0  0  0  0  0  0  0  0  0  0  0  0
   -1.6906    2.6889   -7.5556 C   0  0  0  0  0  0  0  0  0  0  0  0
   -2.3070    3.7540   -6.9664 C   0  0  0  0  0  0  0  0  0  0  0  0
   -3.6893    3.5460   -6.7297 C   0  0  0  0  0  0  0  0  0  0  0  0
   -4.5660    4.3355   -5.9642 C   0  0  0  0  0  0  0  0  0  0  0  0
   -4.1578    5.6147   -5.4095 C   0  0  0  0  0  0  0  0  0  0  0  0
   -2.6759    5.7913   -4.5158 S   0  0  0  0  0  0  0  0  0  0  0  0
   -2.9536    7.4744   -4.2217 C   0  0  0  0  0  0  0  0  0  0  0  0
   -1.9772    8.2980   -3.4552 C   0  0  0  0  0  0  0  0  0  0  0  0
   -0.5358    7.9882   -3.8481 C   0  0  0  0  0  0  0  0  0  0  0  0
   -4.1327    7.8596   -4.7863 C   0  0  0  0  0  0  0  0  0  0  0  0
   -4.7519    9.4595   -4.7171 Cl  0  0  0  0  0  0  0  0  0  0  0  0
   -4.8198    6.8101   -5.4546 C   0  0  0  0  0  0  0  0  0  0  0  0
   -6.2859    7.0695   -6.3027 Cl  0  0  0  0  0  0  0  0  0  0  0  0
   -5.8171    3.7929   -5.6884 C   0  0  0  0  0  0  0  0  0  0  0  0
   -6.2434    2.5416   -6.1890 C   0  0  0  0  0  0  0  0  0  0  0  0
   -5.3861    1.7736   -6.9888 C   0  0  0  0  0  0  0  0  0  0  0  0
   -5.7603    0.4427   -7.4481 C   0  0  0  0  0  0  0  0  0  0  0  0
   -7.1400    0.1908   -8.4719 S   0  0  0  0  0  0  0  0  0  0  0  0
   -6.8561   -1.5126   -8.5703 C   0  0  0  0  0  0  0  0  0  0  0  0
   -7.7220   -2.3930   -9.4011 C   0  0  0  0  0  0  0  0  0  0  0  0
   -7.3064   -2.3416  -10.8732 C   0  0  0  0  0  0  0  0  0  0  0  0
   -5.7510   -1.8484   -7.8487 C   0  0  0  0  0  0  0  0  0  0  0  0
   -5.1357   -0.7466   -7.1959 C   0  0  0  0  0  0  0  0  0  0  0  0
   -3.8034   -0.9391   -6.1273 Cl  0  0  0  0  0  0  0  0  0  0  0  0
   -5.1405   -3.4477   -7.7248 Cl  0  0  0  0  0  0  0  0  0  0  0  0
   -4.1224    2.2924   -7.2285 C   0  0  0  0  0  0  0  0  0  0  0  0
   -2.8335    1.4497   -8.0388 S   0  0  0  0  0  0  0  0  0  0  0  0
   -7.4880    2.1367   -5.6319 C   0  0  0  0  0  0  0  0  0  0  0  0
   -7.9688    2.9850   -4.6969 C   0  0  0  0  0  0  0  0  0  0  0  0
   -6.9668    4.4184   -4.5427 S   0  0  0  0  0  0  0  0  0  0  0  0
   -9.1814    2.8702   -3.8261 C   0  0  0  0  0  0  0  0  0  0  0  0
   -9.9374    1.5449   -3.9801 C   0  0  0  0  0  0  0  0  0  0  0  0
   -9.2121    0.3288   -3.3832 C   0  0  0  0  0  0  0  0  0  0  0  0
   -7.9844    0.7236   -2.5489 C   0  0  0  0  0  0  0  0  0  0  0  0
   -8.4295    1.8298   -1.5911 C   0  0  0  0  0  0  0  0  0  0  0  0
   -8.8382    3.1081   -2.3416 C   0  0  0  0  0  0  0  0  0  0  0  0
   -7.3174   -0.3860   -1.8909 N   0  0  0  0  0  0  0  0  0  0  0  0
   -7.7643   -0.8476   -0.5957 C   0  0  0  0  0  0  0  0  0  0  0  0
   -8.9908   -1.7688   -0.5108 C   0  0  0  0  0  0  0  0  0  0  0  0
   -6.7467   -1.3302   -2.8388 C   0  0  0  0  0  0  0  0  0  0  0  0
   -7.7781   -2.0459   -3.7281 C   0  0  0  0  0  0  0  0  0  0  0  0
   -8.7162   -0.8249   -4.7195 S   0  0  0  0  0  0  0  0  0  0  0  0
   -7.1144   -2.9735   -4.7366 C   0  0  0  0  0  0  0  0  0  0  0  0
   -6.2048   -3.9841   -4.0541 C   0  0  0  0  0  0  0  0  0  0  0  0
   -5.1611   -3.2460   -3.2287 C   0  0  0  0  0  0  0  0  0  0  0  0
   -5.8419   -2.3730   -2.1604 C   0  0  0  0  0  0  0  0  0  0  0  0
   -4.7792   -1.7265   -1.3293 C   0  0  0  0  0  0  0  0  0  0  0  0
   -4.1558   -2.3415   -0.3216 C   0  0  0  0  0  0  0  0  0  0  0  0
   -3.0551   -1.7913    0.4177 C   0  0  0  0  0  0  0  0  0  0  0  0
   -2.2878   -2.4318    1.3429 C   0  0  0  0  0  0  0  0  0  0  0  0
   -1.2239   -1.6441    1.8557 C   0  0  0  0  0  0  0  0  0  0  0  0
   -0.2512   -1.9973    2.8111 C   0  0  0  0  0  0  0  0  0  0  0  0
   -0.3254   -3.2497    3.5368 C   0  0  0  0  0  0  0  0  0  0  0  0
    1.0904   -4.2317    3.7838 S   0  0  0  0  0  0  0  0  0  0  0  0
    0.2003   -5.4623    4.6111 C   0  0  0  0  0  0  0  0  0  0  0  0
    0.8519   -6.7057    5.1101 C   0  0  0  0  0  0  0  0  0  0  0  0
    2.3223   -6.4973    5.4489 C   0  0  0  0  0  0  0  0  0  0  0  0
   -1.1142   -5.1126    4.6953 C   0  0  0  0  0  0  0  0  0  0  0  0
   -2.3134   -6.0987    5.4303 Cl  0  0  0  0  0  0  0  0  0  0  0  0
   -1.4143   -3.8555    4.1069 C   0  0  0  0  0  0  0  0  0  0  0  0
   -2.9727   -3.1446    4.2460 Cl  0  0  0  0  0  0  0  0  0  0  0  0
    0.7957   -1.0965    2.9942 C   0  0  0  0  0  0  0  0  0  0  0  0
    0.8523    0.1615    2.3527 C   0  0  0  0  0  0  0  0  0  0  0  0
   -0.2073    0.5814    1.5310 C   0  0  0  0  0  0  0  0  0  0  0  0
   -0.3122    1.9526    1.0672 C   0  0  0  0  0  0  0  0  0  0  0  0
   -0.8031    2.3659   -0.5500 S   0  0  0  0  0  0  0  0  0  0  0  0
   -0.8542    4.0561   -0.1901 C   0  0  0  0  0  0  0  0  0  0  0  0
   -1.3788    5.0486   -1.1670 C   0  0  0  0  0  0  0  0  0  0  0  0
   -2.8671    5.2958   -0.9052 C   0  0  0  0  0  0  0  0  0  0  0  0
   -0.4899    4.2756    1.1051 C   0  0  0  0  0  0  0  0  0  0  0  0
   -0.1819    3.0902    1.8211 C   0  0  0  0  0  0  0  0  0  0  0  0
    0.1812    3.1131    3.4989 Cl  0  0  0  0  0  0  0  0  0  0  0  0
   -0.4299    5.8317    1.8253 Cl  0  0  0  0  0  0  0  0  0  0  0  0
   -1.1911   -0.3625    1.2536 C   0  0  0  0  0  0  0  0  0  0  0  0
   -2.5137   -0.1485    0.1435 S   0  0  0  0  0  0  0  0  0  0  0  0
    2.0684    0.8487    2.6418 C   0  0  0  0  0  0  0  0  0  0  0  0
    2.8619    0.1736    3.4953 C   0  0  0  0  0  0  0  0  0  0  0  0
    2.1877   -1.3337    4.0141 S   0  0  0  0  0  0  0  0  0  0  0  0
    4.6779   -4.7172   13.8990 H   0  0  0  0  0  0  0  0  0  0  0  0
    6.8003   -3.8203   12.6884 H   0  0  0  0  0  0  0  0  0  0  0  0
   12.1064   -3.1663    9.8688 H   0  0  0  0  0  0  0  0  0  0  0  0
   12.2273   -1.8139   11.0111 H   0  0  0  0  0  0  0  0  0  0  0  0
   13.0933   -1.1756    8.7624 H   0  0  0  0  0  0  0  0  0  0  0  0
   11.5271   -1.5679    8.0418 H   0  0  0  0  0  0  0  0  0  0  0  0
   11.6657   -0.2208    9.1760 H   0  0  0  0  0  0  0  0  0  0  0  0
   -1.0794   -2.7299    6.7336 H   0  0  0  0  0  0  0  0  0  0  0  0
   -1.9204   -4.1727    7.3347 H   0  0  0  0  0  0  0  0  0  0  0  0
   -2.8227   -2.1134    8.3859 H   0  0  0  0  0  0  0  0  0  0  0  0
   -1.2174   -1.7098    9.0055 H   0  0  0  0  0  0  0  0  0  0  0  0
   -2.0597   -3.1448    9.6005 H   0  0  0  0  0  0  0  0  0  0  0  0
    3.5856   -3.6621    6.3092 H   0  0  0  0  0  0  0  0  0  0  0  0
    6.8919   -0.9476    4.4920 H   0  0  0  0  0  0  0  0  0  0  0  0
   10.3686    3.4698    3.0310 H   0  0  0  0  0  0  0  0  0  0  0  0
   11.1207    1.8934    2.7284 H   0  0  0  0  0  0  0  0  0  0  0  0
   10.3631    1.0959    4.9655 H   0  0  0  0  0  0  0  0  0  0  0  0
   11.3791    2.5348    5.1092 H   0  0  0  0  0  0  0  0  0  0  0  0
    9.6267    2.6708    5.2799 H   0  0  0  0  0  0  0  0  0  0  0  0
    1.6640   -7.6166    1.7524 H   0  0  0  0  0  0  0  0  0  0  0  0
    0.1164   -7.0035    1.1336 H   0  0  0  0  0  0  0  0  0  0  0  0
    2.4527   -7.9728   -0.5870 H   0  0  0  0  0  0  0  0  0  0  0  0
    0.9625   -8.8703   -0.2764 H   0  0  0  0  0  0  0  0  0  0  0  0
    0.9115   -7.3661   -1.2007 H   0  0  0  0  0  0  0  0  0  0  0  0
    3.7117   -2.5474   -1.7060 H   0  0  0  0  0  0  0  0  0  0  0  0
    4.7913    1.7968   -3.2096 H   0  0  0  0  0  0  0  0  0  0  0  0
    6.7582    6.1623   -4.0392 H   0  0  0  0  0  0  0  0  0  0  0  0
    5.6013    7.2157   -3.2029 H   0  0  0  0  0  0  0  0  0  0  0  0
    4.7965    8.0712   -5.4036 H   0  0  0  0  0  0  0  0  0  0  0  0
    5.9450    7.0194   -6.2373 H   0  0  0  0  0  0  0  0  0  0  0  0
    6.5331    8.3379   -5.2181 H   0  0  0  0  0  0  0  0  0  0  0  0
   -1.3405   -5.3116   -6.9114 H   0  0  0  0  0  0  0  0  0  0  0  0
   -2.3818   -3.8768   -6.8555 H   0  0  0  0  0  0  0  0  0  0  0  0
   -2.7675   -5.2927   -4.8637 H   0  0  0  0  0  0  0  0  0  0  0  0
   -2.0725   -3.7405   -4.3865 H   0  0  0  0  0  0  0  0  0  0  0  0
   -1.0570   -5.1848   -4.4312 H   0  0  0  0  0  0  0  0  0  0  0  0
   -0.4363    0.2253   -7.7354 H   0  0  0  0  0  0  0  0  0  0  0  0
   -1.7576    4.6093   -6.6189 H   0  0  0  0  0  0  0  0  0  0  0  0
   -2.2025    9.3505   -3.6377 H   0  0  0  0  0  0  0  0  0  0  0  0
   -2.1057    8.1113   -2.3844 H   0  0  0  0  0  0  0  0  0  0  0  0
   -0.3064    6.9426   -3.6576 H   0  0  0  0  0  0  0  0  0  0  0  0
    0.1495    8.6045   -3.2723 H   0  0  0  0  0  0  0  0  0  0  0  0
   -0.3773    8.1884   -4.9050 H   0  0  0  0  0  0  0  0  0  0  0  0
   -8.7602   -2.0712   -9.3043 H   0  0  0  0  0  0  0  0  0  0  0  0
   -7.6385   -3.4167   -9.0313 H   0  0  0  0  0  0  0  0  0  0  0  0
   -7.9482   -2.9883  -11.4653 H   0  0  0  0  0  0  0  0  0  0  0  0
   -7.3880   -1.3257  -11.2524 H   0  0  0  0  0  0  0  0  0  0  0  0
   -6.2772   -2.6731  -10.9869 H   0  0  0  0  0  0  0  0  0  0  0  0
   -7.9538    1.2048   -5.8911 H   0  0  0  0  0  0  0  0  0  0  0  0
   -9.8629    3.6735   -4.1374 H   0  0  0  0  0  0  0  0  0  0  0  0
  -10.1521    1.3631   -5.0347 H   0  0  0  0  0  0  0  0  0  0  0  0
  -10.8965    1.6614   -3.4710 H   0  0  0  0  0  0  0  0  0  0  0  0
   -9.9066   -0.2406   -2.7606 H   0  0  0  0  0  0  0  0  0  0  0  0
   -7.2349    1.1443   -3.2332 H   0  0  0  0  0  0  0  0  0  0  0  0
   -7.6155    2.0561   -0.9023 H   0  0  0  0  0  0  0  0  0  0  0  0
   -9.2796    1.4689   -1.0090 H   0  0  0  0  0  0  0  0  0  0  0  0
   -9.7093    3.5404   -1.8468 H   0  0  0  0  0  0  0  0  0  0  0  0
   -8.0372    3.8462   -2.2829 H   0  0  0  0  0  0  0  0  0  0  0  0
   -7.9627    0.0369    0.0106 H   0  0  0  0  0  0  0  0  0  0  0  0
   -6.9178   -1.3566   -0.1267 H   0  0  0  0  0  0  0  0  0  0  0  0
   -9.8738   -1.3045   -0.9430 H   0  0  0  0  0  0  0  0  0  0  0  0
   -9.1988   -1.9759    0.5369 H   0  0  0  0  0  0  0  0  0  0  0  0
   -8.8158   -2.7182   -1.0108 H   0  0  0  0  0  0  0  0  0  0  0  0
   -6.1124   -0.7321   -3.5136 H   0  0  0  0  0  0  0  0  0  0  0  0
   -8.5065   -2.5907   -3.1233 H   0  0  0  0  0  0  0  0  0  0  0  0
   -7.8837   -3.4779   -5.3254 H   0  0  0  0  0  0  0  0  0  0  0  0
   -6.5219   -2.3618   -5.4181 H   0  0  0  0  0  0  0  0  0  0  0  0
   -5.7167   -4.6012   -4.8102 H   0  0  0  0  0  0  0  0  0  0  0  0
   -6.7927   -4.6415   -3.4088 H   0  0  0  0  0  0  0  0  0  0  0  0
   -4.4949   -3.9555   -2.7340 H   0  0  0  0  0  0  0  0  0  0  0  0
   -4.5566   -2.6146   -3.8821 H   0  0  0  0  0  0  0  0  0  0  0  0
   -6.4473   -3.0394   -1.5374 H   0  0  0  0  0  0  0  0  0  0  0  0
   -4.4723   -0.7328   -1.6251 H   0  0  0  0  0  0  0  0  0  0  0  0
   -4.4495   -3.3414   -0.0250 H   0  0  0  0  0  0  0  0  0  0  0  0
   -2.4499   -3.4581    1.6161 H   0  0  0  0  0  0  0  0  0  0  0  0
    0.3062   -7.0482    5.9924 H   0  0  0  0  0  0  0  0  0  0  0  0
    0.7610   -7.4856    4.3467 H   0  0  0  0  0  0  0  0  0  0  0  0
    2.4260   -5.7621    6.2423 H   0  0  0  0  0  0  0  0  0  0  0  0
    2.7641   -7.4299    5.7887 H   0  0  0  0  0  0  0  0  0  0  0  0
    2.8715   -6.1469    4.5771 H   0  0  0  0  0  0  0  0  0  0  0  0
   -0.8240    5.9830   -1.0608 H   0  0  0  0  0  0  0  0  0  0  0  0
   -1.2490    4.6729   -2.1818 H   0  0  0  0  0  0  0  0  0  0  0  0
   -3.4212    4.3645   -0.9955 H   0  0  0  0  0  0  0  0  0  0  0  0
   -3.0135    5.6923    0.0963 H   0  0  0  0  0  0  0  0  0  0  0  0
   -3.2659    6.0052   -1.6246 H   0  0  0  0  0  0  0  0  0  0  0  0
    2.3343    1.7903    2.1977 H   0  0  0  0  0  0  0  0  0  0  0  0
    3.8267    0.4566    3.8685 H   0  0  0  0  0  0  0  0  0  0  0  0
  1  2  2  0  0  0  0
  2  3  1  0  0  0  0
  3  4  2  0  0  0  0
  4  5  1  0  0  0  0
  5  6  1  0  0  0  0
  6  7  1  0  0  0  0
  7  8  1  0  0  0  0
  8  9  1  0  0  0  0
  7 10  2  0  0  0  0
 10 11  1  0  0  0  0
 10 12  1  0  0  0  0
 12 13  1  0  0  0  0
  4 14  1  0  0  0  0
 14 15  2  0  0  0  0
 15 16  1  0  0  0  0
 16 17  1  0  0  0  0
 17 18  1  0  0  0  0
 18 19  1  0  0  0  0
 19 20  1  0  0  0  0
 20 21  1  0  0  0  0
 19 22  2  0  0  0  0
 22 23  1  0  0  0  0
 23 24  1  0  0  0  0
 22 25  1  0  0  0  0
 16 26  2  0  0  0  0
 26 27  1  0  0  0  0
 15 28  1  0  0  0  0
 28 29  2  0  0  0  0
 29 30  1  0  0  0  0
 29 31  1  0  0  0  0
 31 32  2  0  0  0  0
 32 33  1  0  0  0  0
 33 34  2  0  0  0  0
 34 35  1  0  0  0  0
 35 36  1  0  0  0  0
 36 37  1  0  0  0  0
 37 38  1  0  0  0  0
 38 39  1  0  0  0  0
 37 40  2  0  0  0  0
 40 41  1  0  0  0  0
 40 42  1  0  0  0  0
 42 43  1  0  0  0  0
 34 44  1  0  0  0  0
 44 45  2  0  0  0  0
 45 46  1  0  0  0  0
 46 47  1  0  0  0  0
 47 48  1  0  0  0  0
 48 49  1  0  0  0  0
 49 50  1  0  0  0  0
 50 51  1  0  0  0  0
 49 52  2  0  0  0  0
 52 53  1  0  0  0  0
 53 54  1  0  0  0  0
 52 55  1  0  0  0  0
 46 56  2  0  0  0  0
 56 57  1  0  0  0  0
 45 58  1  0  0  0  0
 58 59  2  0  0  0  0
 59 60  1  0  0  0  0
 59 61  1  0  0  0  0
 61 62  2  0  0  0  0
 62 63  1  0  0  0  0
 63 64  2  0  0  0  0
 64 65  1  0  0  0  0
 65 66  1  0  0  0  0
 66 67  1  0  0  0  0
 67 68  1  0  0  0  0
 68 69  1  0  0  0  0
 67 70  2  0  0  0  0
 70 71  1  0  0  0  0
 70 72  1  0  0  0  0
 72 73  1  0  0  0  0
 64 74  1  0  0  0  0
 74 75  2  0  0  0  0
 75 76  1  0  0  0  0
 76 77  1  0  0  0  0
 77 78  1  0  0  0  0
 78 79  1  0  0  0  0
 79 80  1  0  0  0  0
 80 81  1  0  0  0  0
 79 82  2  0  0  0  0
 82 83  1  0  0  0  0
 83 84  1  0  0  0  0
 82 85  1  0  0  0  0
 76 86  2  0  0  0  0
 86 87  1  0  0  0  0
 75 88  1  0  0  0  0
 88 89  2  0  0  0  0
 89 90  1  0  0  0  0
 89 91  1  0  0  0  0
 91 92  2  0  0  0  0
 92 93  1  0  0  0  0
 93 94  2  0  0  0  0
 94 95  1  0  0  0  0
 95 96  1  0  0  0  0
 96 97  1  0  0  0  0
 97 98  1  0  0  0  0
 98 99  1  0  0  0  0
 97100  2  0  0  0  0
100101  1  0  0  0  0
100102  1  0  0  0  0
102103  1  0  0  0  0
 94104  1  0  0  0  0
104105  2  0  0  0  0
105106  1  0  0  0  0
106107  1  0  0  0  0
107108  1  0  0  0  0
108109  1  0  0  0  0
109110  1  0  0  0  0
110111  1  0  0  0  0
109112  2  0  0  0  0
112113  1  0  0  0  0
113114  1  0  0  0  0
112115  1  0  0  0  0
106116  2  0  0  0  0
116117  1  0  0  0  0
105118  1  0  0  0  0
118119  2  0  0  0  0
119120  1  0  0  0  0
119121  1  0  0  0  0
121122  1  0  0  0  0
122123  1  0  0  0  0
123124  1  0  0  0  0
124125  1  0  0  0  0
125126  1  0  0  0  0
124127  1  0  0  0  0
127128  1  0  0  0  0
128129  1  0  0  0  0
127130  1  0  0  0  0
130131  1  0  0  0  0
131132  1  0  0  0  0
131133  1  0  0  0  0
133134  1  0  0  0  0
134135  1  0  0  0  0
135136  1  0  0  0  0
136137  1  0  0  0  0
137138  2  0  0  0  0
138139  1  0  0  0  0
139140  2  0  0  0  0
140141  1  0  0  0  0
141142  2  0  0  0  0
142143  1  0  0  0  0
143144  1  0  0  0  0
144145  1  0  0  0  0
145146  1  0  0  0  0
146147  1  0  0  0  0
145148  2  0  0  0  0
148149  1  0  0  0  0
148150  1  0  0  0  0
150151  1  0  0  0  0
142152  1  0  0  0  0
152153  2  0  0  0  0
153154  1  0  0  0  0
154155  1  0  0  0  0
155156  1  0  0  0  0
156157  1  0  0  0  0
157158  1  0  0  0  0
158159  1  0  0  0  0
157160  2  0  0  0  0
160161  1  0  0  0  0
161162  1  0  0  0  0
160163  1  0  0  0  0
154164  2  0  0  0  0
164165  1  0  0  0  0
153166  1  0  0  0  0
166167  2  0  0  0  0
167168  1  0  0  0  0
 27  1  1  0  0  0  0
 57 31  1  0  0  0  0
 87 61  1  0  0  0  0
117 91  1  0  0  0  0
126121  1  0  0  0  0
136130  1  0  0  0  0
165139  1  0  0  0  0
 26  3  1  0  0  0  0
 56 33  1  0  0  0  0
 86 63  1  0  0  0  0
116 93  1  0  0  0  0
132123  1  0  0  0  0
164141  1  0  0  0  0
 12  5  2  0  0  0  0
 30 14  1  0  0  0  0
 42 35  2  0  0  0  0
 60 44  1  0  0  0  0
 72 65  2  0  0  0  0
 90 74  1  0  0  0  0
102 95  2  0  0  0  0
120104  1  0  0  0  0
150143  2  0  0  0  0
168152  1  0  0  0  0
 23 17  2  0  0  0  0
 53 47  2  0  0  0  0
 83 77  2  0  0  0  0
113107  2  0  0  0  0
161155  2  0  0  0  0
  1169  1  0  0  0  0
  2170  1  0  0  0  0
  8171  1  0  0  0  0
  8172  1  0  0  0  0
  9173  1  0  0  0  0
  9174  1  0  0  0  0
  9175  1  0  0  0  0
 20176  1  0  0  0  0
 20177  1  0  0  0  0
 21178  1  0  0  0  0
 21179  1  0  0  0  0
 21180  1  0  0  0  0
 28181  1  0  0  0  0
 32182  1  0  0  0  0
 38183  1  0  0  0  0
 38184  1  0  0  0  0
 39185  1  0  0  0  0
 39186  1  0  0  0  0
 39187  1  0  0  0  0
 50188  1  0  0  0  0
 50189  1  0  0  0  0
 51190  1  0  0  0  0
 51191  1  0  0  0  0
 51192  1  0  0  0  0
 58193  1  0  0  0  0
 62194  1  0  0  0  0
 68195  1  0  0  0  0
 68196  1  0  0  0  0
 69197  1  0  0  0  0
 69198  1  0  0  0  0
 69199  1  0  0  0  0
 80200  1  0  0  0  0
 80201  1  0  0  0  0
 81202  1  0  0  0  0
 81203  1  0  0  0  0
 81204  1  0  0  0  0
 88205  1  0  0  0  0
 92206  1  0  0  0  0
 98207  1  0  0  0  0
 98208  1  0  0  0  0
 99209  1  0  0  0  0
 99210  1  0  0  0  0
 99211  1  0  0  0  0
110212  1  0  0  0  0
110213  1  0  0  0  0
111214  1  0  0  0  0
111215  1  0  0  0  0
111216  1  0  0  0  0
118217  1  0  0  0  0
121218  1  0  0  0  0
122219  1  0  0  0  0
122220  1  0  0  0  0
123221  1  0  0  0  0
124222  1  0  0  0  0
125223  1  0  0  0  0
125224  1  0  0  0  0
126225  1  0  0  0  0
126226  1  0  0  0  0
128227  1  0  0  0  0
128228  1  0  0  0  0
129229  1  0  0  0  0
129230  1  0  0  0  0
129231  1  0  0  0  0
130232  1  0  0  0  0
131233  1  0  0  0  0
133234  1  0  0  0  0
133235  1  0  0  0  0
134236  1  0  0  0  0
134237  1  0  0  0  0
135238  1  0  0  0  0
135239  1  0  0  0  0
136240  1  0  0  0  0
137241  1  0  0  0  0
138242  1  0  0  0  0
140243  1  0  0  0  0
146244  1  0  0  0  0
146245  1  0  0  0  0
147246  1  0  0  0  0
147247  1  0  0  0  0
147248  1  0  0  0  0
158249  1  0  0  0  0
158250  1  0  0  0  0
159251  1  0  0  0  0
159252  1  0  0  0  0
159253  1  0  0  0  0
166254  1  0  0  0  0
167255  1  0  0  0  0
M  END
