
  xtb     03022201333D
 energy: -456.151856901525 gnorm: 0.002333545577 xtb: 6.4.1 (unknown)
229255  0     0  0            999 V2000
   -3.2061  -18.8080    1.7722 C   0  0  0  0  0  0  0  0  0  0  0  0
   -3.1404  -18.5821    0.4444 C   0  0  0  0  0  0  0  0  0  0  0  0
   -3.4888  -17.2453    0.0905 C   0  0  0  0  0  0  0  0  0  0  0  0
   -3.5541  -16.6734   -1.1914 C   0  0  0  0  0  0  0  0  0  0  0  0
   -3.2066  -17.4321   -2.3823 C   0  0  0  0  0  0  0  0  0  0  0  0
   -1.6736  -18.2435   -2.5211 S   0  0  0  0  0  0  0  0  0  0  0  0
   -2.0296  -18.8160   -4.1152 C   0  0  0  0  0  0  0  0  0  0  0  0
   -1.0390  -19.6165   -4.8863 C   0  0  0  0  0  0  0  0  0  0  0  0
    0.0203  -18.7166   -5.5278 C   0  0  0  0  0  0  0  0  0  0  0  0
   -3.2629  -18.3880   -4.5058 C   0  0  0  0  0  0  0  0  0  0  0  0
   -3.9678  -18.7579   -6.0256 Cl  0  0  0  0  0  0  0  0  0  0  0  0
   -3.9337  -17.6055   -3.5269 C   0  0  0  0  0  0  0  0  0  0  0  0
   -5.5306  -17.0256   -3.7518 Cl  0  0  0  0  0  0  0  0  0  0  0  0
   -3.9450  -15.3414   -1.2693 C   0  0  0  0  0  0  0  0  0  0  0  0
   -4.2827  -14.5827   -0.1228 C   0  0  0  0  0  0  0  0  0  0  0  0
   -4.2515  -15.1617    1.1562 C   0  0  0  0  0  0  0  0  0  0  0  0
   -4.6373  -14.3791    2.3179 C   0  0  0  0  0  0  0  0  0  0  0  0
   -3.5966  -14.2162    3.7004 S   0  0  0  0  0  0  0  0  0  0  0  0
   -4.6900  -13.1345    4.4940 C   0  0  0  0  0  0  0  0  0  0  0  0
   -4.3956  -12.5928    5.8491 C   0  0  0  0  0  0  0  0  0  0  0  0
   -4.9028  -13.5393    6.9396 C   0  0  0  0  0  0  0  0  0  0  0  0
   -5.8025  -12.9391    3.7307 C   0  0  0  0  0  0  0  0  0  0  0  0
   -5.7734  -13.6363    2.4943 C   0  0  0  0  0  0  0  0  0  0  0  0
   -7.0836  -13.5920    1.3848 Cl  0  0  0  0  0  0  0  0  0  0  0  0
   -7.1159  -11.9364    4.1907 Cl  0  0  0  0  0  0  0  0  0  0  0  0
   -3.8316  -16.4823    1.2326 C   0  0  0  0  0  0  0  0  0  0  0  0
   -3.7001  -17.4270    2.6890 S   0  0  0  0  0  0  0  0  0  0  0  0
   -4.5667  -13.2365   -0.4457 C   0  0  0  0  0  0  0  0  0  0  0  0
   -4.4788  -12.9632   -1.7788 C   0  0  0  0  0  0  0  0  0  0  0  0
   -4.0102  -14.3646   -2.7118 S   0  0  0  0  0  0  0  0  0  0  0  0
   -4.7180  -11.6676   -2.3344 C   0  0  0  0  0  0  0  0  0  0  0  0
   -5.4475  -10.6956   -1.7150 C   0  0  0  0  0  0  0  0  0  0  0  0
   -5.3776   -9.4410   -2.3603 C   0  0  0  0  0  0  0  0  0  0  0  0
   -5.8844   -8.2164   -1.8999 C   0  0  0  0  0  0  0  0  0  0  0  0
   -6.5671   -8.0996   -0.6214 C   0  0  0  0  0  0  0  0  0  0  0  0
   -8.0941   -7.2783   -0.4929 S   0  0  0  0  0  0  0  0  0  0  0  0
   -8.1624   -7.5039    1.2213 C   0  0  0  0  0  0  0  0  0  0  0  0
   -9.2725   -6.9259    2.0272 C   0  0  0  0  0  0  0  0  0  0  0  0
   -9.0378   -5.4329    2.2719 C   0  0  0  0  0  0  0  0  0  0  0  0
   -7.0579   -8.1744    1.6551 C   0  0  0  0  0  0  0  0  0  0  0  0
   -6.7612   -8.5762    3.2961 Cl  0  0  0  0  0  0  0  0  0  0  0  0
   -6.1538   -8.5175    0.6141 C   0  0  0  0  0  0  0  0  0  0  0  0
   -4.6527   -9.2892    0.9343 Cl  0  0  0  0  0  0  0  0  0  0  0  0
   -5.6218   -7.1007   -2.6809 C   0  0  0  0  0  0  0  0  0  0  0  0
   -4.8695   -7.1499   -3.8804 C   0  0  0  0  0  0  0  0  0  0  0  0
   -4.3822   -8.3840   -4.3523 C   0  0  0  0  0  0  0  0  0  0  0  0
   -3.6175   -8.4822   -5.5839 C   0  0  0  0  0  0  0  0  0  0  0  0
   -2.2373   -7.4671   -5.8901 S   0  0  0  0  0  0  0  0  0  0  0  0
   -1.9365   -8.1991   -7.4292 C   0  0  0  0  0  0  0  0  0  0  0  0
   -0.7836   -7.7763   -8.2707 C   0  0  0  0  0  0  0  0  0  0  0  0
    0.5382   -8.2906   -7.6972 C   0  0  0  0  0  0  0  0  0  0  0  0
   -2.8544   -9.1760   -7.6738 C   0  0  0  0  0  0  0  0  0  0  0  0
   -3.8088   -9.3386   -6.6334 C   0  0  0  0  0  0  0  0  0  0  0  0
   -5.1128  -10.4436   -6.7558 Cl  0  0  0  0  0  0  0  0  0  0  0  0
   -2.8867  -10.1271   -9.1014 Cl  0  0  0  0  0  0  0  0  0  0  0  0
   -4.6319   -9.5024   -3.5641 C   0  0  0  0  0  0  0  0  0  0  0  0
   -3.9947  -11.1038   -3.8225 S   0  0  0  0  0  0  0  0  0  0  0  0
   -4.6545   -5.8533   -4.4135 C   0  0  0  0  0  0  0  0  0  0  0  0
   -5.1843   -4.8567   -3.6494 C   0  0  0  0  0  0  0  0  0  0  0  0
   -6.0479   -5.4715   -2.2537 S   0  0  0  0  0  0  0  0  0  0  0  0
   -4.9902   -3.4489   -3.7552 C   0  0  0  0  0  0  0  0  0  0  0  0
   -5.5115   -2.5025   -2.9231 C   0  0  0  0  0  0  0  0  0  0  0  0
   -4.9418   -1.2204   -3.0972 C   0  0  0  0  0  0  0  0  0  0  0  0
   -5.1423   -0.0762   -2.3059 C   0  0  0  0  0  0  0  0  0  0  0  0
   -6.1082   -0.0479   -1.2203 C   0  0  0  0  0  0  0  0  0  0  0  0
   -6.1458   -1.2724    0.0157 S   0  0  0  0  0  0  0  0  0  0  0  0
   -7.4516   -0.5059    0.8511 C   0  0  0  0  0  0  0  0  0  0  0  0
   -7.9981   -1.0619    2.1201 C   0  0  0  0  0  0  0  0  0  0  0  0
   -7.3704   -0.3754    3.3359 C   0  0  0  0  0  0  0  0  0  0  0  0
   -7.8203    0.6360    0.2047 C   0  0  0  0  0  0  0  0  0  0  0  0
   -9.0882    1.6641    0.7331 Cl  0  0  0  0  0  0  0  0  0  0  0  0
   -7.0626    0.8996   -0.9672 C   0  0  0  0  0  0  0  0  0  0  0  0
   -7.3936    2.2313   -1.9933 Cl  0  0  0  0  0  0  0  0  0  0  0  0
   -4.3120    1.0082   -2.5578 C   0  0  0  0  0  0  0  0  0  0  0  0
   -3.3476    1.0198   -3.5964 C   0  0  0  0  0  0  0  0  0  0  0  0
   -3.2096   -0.0948   -4.4448 C   0  0  0  0  0  0  0  0  0  0  0  0
   -2.2356   -0.1167   -5.5228 C   0  0  0  0  0  0  0  0  0  0  0  0
   -0.5727    0.3231   -5.2594 S   0  0  0  0  0  0  0  0  0  0  0  0
   -0.1460    0.0326   -6.9113 C   0  0  0  0  0  0  0  0  0  0  0  0
    1.2343    0.3004   -7.4004 C   0  0  0  0  0  0  0  0  0  0  0  0
    1.5471    1.7981   -7.3713 C   0  0  0  0  0  0  0  0  0  0  0  0
   -1.2372   -0.3854   -7.6120 C   0  0  0  0  0  0  0  0  0  0  0  0
   -2.4201   -0.4788   -6.8290 C   0  0  0  0  0  0  0  0  0  0  0  0
   -3.9322   -0.9135   -7.5074 Cl  0  0  0  0  0  0  0  0  0  0  0  0
   -1.2159   -0.7708   -9.2842 Cl  0  0  0  0  0  0  0  0  0  0  0  0
   -3.9931   -1.2041   -4.1506 C   0  0  0  0  0  0  0  0  0  0  0  0
   -3.8346   -2.7764   -4.8839 S   0  0  0  0  0  0  0  0  0  0  0  0
   -2.5512    2.1890   -3.5559 C   0  0  0  0  0  0  0  0  0  0  0  0
   -2.8394    3.0085   -2.5049 C   0  0  0  0  0  0  0  0  0  0  0  0
   -4.1949    2.4294   -1.5615 S   0  0  0  0  0  0  0  0  0  0  0  0
   -2.0686    4.1143   -2.0440 C   0  0  0  0  0  0  0  0  0  0  0  0
   -2.2953    4.8903   -0.9466 C   0  0  0  0  0  0  0  0  0  0  0  0
   -1.2039    5.7298   -0.6169 C   0  0  0  0  0  0  0  0  0  0  0  0
   -1.0444    6.5307    0.5261 C   0  0  0  0  0  0  0  0  0  0  0  0
   -2.0771    6.6077    1.5475 C   0  0  0  0  0  0  0  0  0  0  0  0
   -2.7159    8.1364    2.0702 S   0  0  0  0  0  0  0  0  0  0  0  0
   -3.7934    7.3877    3.1987 C   0  0  0  0  0  0  0  0  0  0  0  0
   -4.6694    8.2057    4.0815 C   0  0  0  0  0  0  0  0  0  0  0  0
   -3.9120    8.6515    5.3348 C   0  0  0  0  0  0  0  0  0  0  0  0
   -3.6420    6.0337    3.1718 C   0  0  0  0  0  0  0  0  0  0  0  0
   -4.5317    4.9506    4.1609 Cl  0  0  0  0  0  0  0  0  0  0  0  0
   -2.6727    5.5863    2.2337 C   0  0  0  0  0  0  0  0  0  0  0  0
   -2.2518    3.9304    2.0613 Cl  0  0  0  0  0  0  0  0  0  0  0  0
    0.1688    7.1869    0.6680 C   0  0  0  0  0  0  0  0  0  0  0  0
    1.2216    7.0819   -0.2713 C   0  0  0  0  0  0  0  0  0  0  0  0
    1.0591    6.2933   -1.4243 C   0  0  0  0  0  0  0  0  0  0  0  0
    2.1303    6.1189   -2.3909 C   0  0  0  0  0  0  0  0  0  0  0  0
    3.7244    5.6304   -1.8933 S   0  0  0  0  0  0  0  0  0  0  0  0
    4.3076    5.5810   -3.5235 C   0  0  0  0  0  0  0  0  0  0  0  0
    5.7223    5.2213   -3.8166 C   0  0  0  0  0  0  0  0  0  0  0  0
    6.6899    6.2965   -3.3184 C   0  0  0  0  0  0  0  0  0  0  0  0
    3.3153    5.9314   -4.3886 C   0  0  0  0  0  0  0  0  0  0  0  0
    2.0798    6.2328   -3.7528 C   0  0  0  0  0  0  0  0  0  0  0  0
    0.7085    6.7690   -4.6291 Cl  0  0  0  0  0  0  0  0  0  0  0  0
    3.5042    6.0002   -6.0932 Cl  0  0  0  0  0  0  0  0  0  0  0  0
   -0.1494    5.6217   -1.5587 C   0  0  0  0  0  0  0  0  0  0  0  0
   -0.5226    4.4567   -2.7937 S   0  0  0  0  0  0  0  0  0  0  0  0
    2.3737    7.7837    0.1519 C   0  0  0  0  0  0  0  0  0  0  0  0
    2.2507    8.3708    1.3787 C   0  0  0  0  0  0  0  0  0  0  0  0
    0.6475    8.1305    2.0508 S   0  0  0  0  0  0  0  0  0  0  0  0
    3.3146    9.0000    2.0927 C   0  0  0  0  0  0  0  0  0  0  0  0
    4.8994    8.9730    1.3510 S   0  0  0  0  0  0  0  0  0  0  0  0
    5.6221    9.7287    2.7325 C   0  0  0  0  0  0  0  0  0  0  0  0
    4.6918    9.9147    3.7320 C   0  0  0  0  0  0  0  0  0  0  0  0
    3.3751    9.5655    3.3478 C   0  0  0  0  0  0  0  0  0  0  0  0
    2.2522    9.9723    4.2509 C   0  0  0  0  0  0  0  0  0  0  0  0
    2.3400   11.4728    4.5120 C   0  0  0  0  0  0  0  0  0  0  0  0
    3.9608   11.9454    5.2348 S   0  0  0  0  0  6  0  0  0  0  0  0
    3.7863   12.2822    6.6226 O   0  0  0  0  0  0  0  0  0  0  0  0
    4.5866   12.9325    4.3980 O   0  0  0  0  0  0  0  0  0  0  0  0
    4.9277   10.3989    5.1061 C   0  0  0  0  0  0  0  0  0  0  0  0
    6.9686   10.2096    2.7268 C   0  0  0  0  0  0  0  0  0  0  0  0
    7.3700   11.3565    3.3410 C   0  0  0  0  0  0  0  0  0  0  0  0
    8.7529   11.6174    3.1896 C   0  0  0  0  0  0  0  0  0  0  0  0
    9.4795   12.6651    3.7744 C   0  0  0  0  0  0  0  0  0  0  0  0
    8.7502   13.6195    4.6006 C   0  0  0  0  0  0  0  0  0  0  0  0
    8.9477   13.6846    6.3244 S   0  0  0  0  0  0  0  0  0  0  0  0
    7.6039   14.7620    6.5113 C   0  0  0  0  0  0  0  0  0  0  0  0
    7.1280   15.1633    7.8626 C   0  0  0  0  0  0  0  0  0  0  0  0
    6.3638   14.0138    8.5264 C   0  0  0  0  0  0  0  0  0  0  0  0
    7.0595   15.0608    5.2983 C   0  0  0  0  0  0  0  0  0  0  0  0
    5.7112   16.0875    5.0788 Cl  0  0  0  0  0  0  0  0  0  0  0  0
    7.7034   14.4077    4.2134 C   0  0  0  0  0  0  0  0  0  0  0  0
    7.2177   14.6025    2.5854 Cl  0  0  0  0  0  0  0  0  0  0  0  0
   10.8443   12.6856    3.5417 C   0  0  0  0  0  0  0  0  0  0  0  0
   11.4952   11.7233    2.7274 C   0  0  0  0  0  0  0  0  0  0  0  0
   10.7666   10.6664    2.1581 C   0  0  0  0  0  0  0  0  0  0  0  0
   11.4006    9.6328    1.3553 C   0  0  0  0  0  0  0  0  0  0  0  0
   10.7998    9.2407   -0.2278 S   0  0  0  0  0  0  0  0  0  0  0  0
   11.9744    7.9889   -0.4483 C   0  0  0  0  0  0  0  0  0  0  0  0
   11.9760    7.1546   -1.6815 C   0  0  0  0  0  0  0  0  0  0  0  0
   10.8225    6.1494   -1.6603 C   0  0  0  0  0  0  0  0  0  0  0  0
   12.7723    7.8885    0.6518 C   0  0  0  0  0  0  0  0  0  0  0  0
   12.4537    8.8229    1.6750 C   0  0  0  0  0  0  0  0  0  0  0  0
   13.2693    8.8564    3.1847 Cl  0  0  0  0  0  0  0  0  0  0  0  0
   14.0474    6.7509    0.8137 Cl  0  0  0  0  0  0  0  0  0  0  0  0
    9.3995   10.6380    2.4041 C   0  0  0  0  0  0  0  0  0  0  0  0
    8.2781    9.4087    1.8806 S   0  0  0  0  0  0  0  0  0  0  0  0
   12.8831   12.0164    2.5888 C   0  0  0  0  0  0  0  0  0  0  0  0
   13.2585   13.1137    3.2781 C   0  0  0  0  0  0  0  0  0  0  0  0
   11.9626   13.8792    4.1325 S   0  0  0  0  0  0  0  0  0  0  0  0
   -2.9944  -19.7195    2.2960 H   0  0  0  0  0  0  0  0  0  0  0  0
   -2.8614  -19.3314   -0.2729 H   0  0  0  0  0  0  0  0  0  0  0  0
   -0.5516  -20.3299   -4.2183 H   0  0  0  0  0  0  0  0  0  0  0  0
   -1.5696  -20.1699   -5.6633 H   0  0  0  0  0  0  0  0  0  0  0  0
    0.5454  -18.1477   -4.7633 H   0  0  0  0  0  0  0  0  0  0  0  0
   -0.4446  -18.0199   -6.2216 H   0  0  0  0  0  0  0  0  0  0  0  0
    0.7418  -19.3206   -6.0709 H   0  0  0  0  0  0  0  0  0  0  0  0
   -4.8837  -11.6218    5.9521 H   0  0  0  0  0  0  0  0  0  0  0  0
   -3.3186  -12.4571    5.9577 H   0  0  0  0  0  0  0  0  0  0  0  0
   -4.6835  -13.1285    7.9214 H   0  0  0  0  0  0  0  0  0  0  0  0
   -4.4201  -14.5094    6.8498 H   0  0  0  0  0  0  0  0  0  0  0  0
   -5.9774  -13.6759    6.8506 H   0  0  0  0  0  0  0  0  0  0  0  0
   -4.7784  -12.4840    0.2895 H   0  0  0  0  0  0  0  0  0  0  0  0
   -6.0234  -10.8728   -0.8270 H   0  0  0  0  0  0  0  0  0  0  0  0
   -9.3258   -7.4524    2.9817 H   0  0  0  0  0  0  0  0  0  0  0  0
  -10.2174   -7.0623    1.4983 H   0  0  0  0  0  0  0  0  0  0  0  0
   -8.9751   -4.9028    1.3242 H   0  0  0  0  0  0  0  0  0  0  0  0
   -9.8557   -5.0166    2.8539 H   0  0  0  0  0  0  0  0  0  0  0  0
   -8.1090   -5.2832    2.8170 H   0  0  0  0  0  0  0  0  0  0  0  0
   -0.7538   -6.6862   -8.3249 H   0  0  0  0  0  0  0  0  0  0  0  0
   -0.9277   -8.1718   -9.2769 H   0  0  0  0  0  0  0  0  0  0  0  0
    1.3650   -7.9805   -8.3307 H   0  0  0  0  0  0  0  0  0  0  0  0
    0.6951   -7.8925   -6.6972 H   0  0  0  0  0  0  0  0  0  0  0  0
    0.5292   -9.3765   -7.6423 H   0  0  0  0  0  0  0  0  0  0  0  0
   -4.0987   -5.6540   -5.3114 H   0  0  0  0  0  0  0  0  0  0  0  0
   -6.2488   -2.7371   -2.1775 H   0  0  0  0  0  0  0  0  0  0  0  0
   -7.8006   -2.1346    2.1595 H   0  0  0  0  0  0  0  0  0  0  0  0
   -9.0792   -0.9041    2.1353 H   0  0  0  0  0  0  0  0  0  0  0  0
   -7.5818    0.6908    3.3162 H   0  0  0  0  0  0  0  0  0  0  0  0
   -6.2924   -0.5160    3.3368 H   0  0  0  0  0  0  0  0  0  0  0  0
   -7.7781   -0.7950    4.2517 H   0  0  0  0  0  0  0  0  0  0  0  0
    1.3191   -0.0777   -8.4204 H   0  0  0  0  0  0  0  0  0  0  0  0
    1.9539   -0.2297   -6.7721 H   0  0  0  0  0  0  0  0  0  0  0  0
    0.8452    2.3433   -7.9976 H   0  0  0  0  0  0  0  0  0  0  0  0
    1.4752    2.1800   -6.3553 H   0  0  0  0  0  0  0  0  0  0  0  0
    2.5532    1.9774   -7.7404 H   0  0  0  0  0  0  0  0  0  0  0  0
   -1.7586    2.4049   -4.2482 H   0  0  0  0  0  0  0  0  0  0  0  0
   -3.2063    4.8363   -0.3793 H   0  0  0  0  0  0  0  0  0  0  0  0
   -5.0152    9.0842    3.5346 H   0  0  0  0  0  0  0  0  0  0  0  0
   -5.5357    7.6079    4.3697 H   0  0  0  0  0  0  0  0  0  0  0  0
   -3.5783    7.7857    5.9009 H   0  0  0  0  0  0  0  0  0  0  0  0
   -3.0425    9.2431    5.0582 H   0  0  0  0  0  0  0  0  0  0  0  0
   -4.5585    9.2536    5.9669 H   0  0  0  0  0  0  0  0  0  0  0  0
    5.9607    4.2720   -3.3309 H   0  0  0  0  0  0  0  0  0  0  0  0
    5.8297    5.0952   -4.8951 H   0  0  0  0  0  0  0  0  0  0  0  0
    6.4886    7.2445   -3.8101 H   0  0  0  0  0  0  0  0  0  0  0  0
    6.5841    6.4321   -2.2447 H   0  0  0  0  0  0  0  0  0  0  0  0
    7.7135    6.0030   -3.5341 H   0  0  0  0  0  0  0  0  0  0  0  0
    3.2837    7.8325   -0.4177 H   0  0  0  0  0  0  0  0  0  0  0  0
    1.2860    9.7445    3.7994 H   0  0  0  0  0  0  0  0  0  0  0  0
    2.3118    9.4307    5.1993 H   0  0  0  0  0  0  0  0  0  0  0  0
    1.5949   11.8018    5.2304 H   0  0  0  0  0  0  0  0  0  0  0  0
    2.2548   12.0432    3.5910 H   0  0  0  0  0  0  0  0  0  0  0  0
    5.9669   10.6083    5.3344 H   0  0  0  0  0  0  0  0  0  0  0  0
    4.5037    9.7335    5.8553 H   0  0  0  0  0  0  0  0  0  0  0  0
    6.6897   12.0253    3.8347 H   0  0  0  0  0  0  0  0  0  0  0  0
    7.9809   15.4412    8.4859 H   0  0  0  0  0  0  0  0  0  0  0  0
    6.4739   16.0301    7.7562 H   0  0  0  0  0  0  0  0  0  0  0  0
    5.5204   13.7055    7.9118 H   0  0  0  0  0  0  0  0  0  0  0  0
    5.9911   14.3275    9.4978 H   0  0  0  0  0  0  0  0  0  0  0  0
    7.0214   13.1582    8.6658 H   0  0  0  0  0  0  0  0  0  0  0  0
   12.9278    6.6255   -1.7448 H   0  0  0  0  0  0  0  0  0  0  0  0
   11.8753    7.7994   -2.5565 H   0  0  0  0  0  0  0  0  0  0  0  0
    9.8711    6.6720   -1.5975 H   0  0  0  0  0  0  0  0  0  0  0  0
   10.8351    5.5471   -2.5649 H   0  0  0  0  0  0  0  0  0  0  0  0
   10.9134    5.4897   -0.8013 H   0  0  0  0  0  0  0  0  0  0  0  0
   13.5548   11.4312    1.9883 H   0  0  0  0  0  0  0  0  0  0  0  0
   14.2385   13.5443    3.3426 H   0  0  0  0  0  0  0  0  0  0  0  0
  1  2  2  0  0  0  0
  2  3  1  0  0  0  0
  3  4  2  0  0  0  0
  4  5  1  0  0  0  0
  5  6  1  0  0  0  0
  6  7  1  0  0  0  0
  7  8  1  0  0  0  0
  8  9  1  0  0  0  0
  7 10  2  0  0  0  0
 10 11  1  0  0  0  0
 10 12  1  0  0  0  0
 12 13  1  0  0  0  0
  4 14  1  0  0  0  0
 14 15  2  0  0  0  0
 15 16  1  0  0  0  0
 16 17  1  0  0  0  0
 17 18  1  0  0  0  0
 18 19  1  0  0  0  0
 19 20  1  0  0  0  0
 20 21  1  0  0  0  0
 19 22  2  0  0  0  0
 22 23  1  0  0  0  0
 23 24  1  0  0  0  0
 22 25  1  0  0  0  0
 16 26  2  0  0  0  0
 26 27  1  0  0  0  0
 15 28  1  0  0  0  0
 28 29  2  0  0  0  0
 29 30  1  0  0  0  0
 29 31  1  0  0  0  0
 31 32  2  0  0  0  0
 32 33  1  0  0  0  0
 33 34  2  0  0  0  0
 34 35  1  0  0  0  0
 35 36  1  0  0  0  0
 36 37  1  0  0  0  0
 37 38  1  0  0  0  0
 38 39  1  0  0  0  0
 37 40  2  0  0  0  0
 40 41  1  0  0  0  0
 40 42  1  0  0  0  0
 42 43  1  0  0  0  0
 34 44  1  0  0  0  0
 44 45  2  0  0  0  0
 45 46  1  0  0  0  0
 46 47  1  0  0  0  0
 47 48  1  0  0  0  0
 48 49  1  0  0  0  0
 49 50  1  0  0  0  0
 50 51  1  0  0  0  0
 49 52  2  0  0  0  0
 52 53  1  0  0  0  0
 53 54  1  0  0  0  0
 52 55  1  0  0  0  0
 46 56  2  0  0  0  0
 56 57  1  0  0  0  0
 45 58  1  0  0  0  0
 58 59  2  0  0  0  0
 59 60  1  0  0  0  0
 59 61  1  0  0  0  0
 61 62  2  0  0  0  0
 62 63  1  0  0  0  0
 63 64  2  0  0  0  0
 64 65  1  0  0  0  0
 65 66  1  0  0  0  0
 66 67  1  0  0  0  0
 67 68  1  0  0  0  0
 68 69  1  0  0  0  0
 67 70  2  0  0  0  0
 70 71  1  0  0  0  0
 70 72  1  0  0  0  0
 72 73  1  0  0  0  0
 64 74  1  0  0  0  0
 74 75  2  0  0  0  0
 75 76  1  0  0  0  0
 76 77  1  0  0  0  0
 77 78  1  0  0  0  0
 78 79  1  0  0  0  0
 79 80  1  0  0  0  0
 80 81  1  0  0  0  0
 79 82  2  0  0  0  0
 82 83  1  0  0  0  0
 83 84  1  0  0  0  0
 82 85  1  0  0  0  0
 76 86  2  0  0  0  0
 86 87  1  0  0  0  0
 75 88  1  0  0  0  0
 88 89  2  0  0  0  0
 89 90  1  0  0  0  0
 89 91  1  0  0  0  0
 91 92  2  0  0  0  0
 92 93  1  0  0  0  0
 93 94  2  0  0  0  0
 94 95  1  0  0  0  0
 95 96  1  0  0  0  0
 96 97  1  0  0  0  0
 97 98  1  0  0  0  0
 98 99  1  0  0  0  0
 97100  2  0  0  0  0
100101  1  0  0  0  0
100102  1  0  0  0  0
102103  1  0  0  0  0
 94104  1  0  0  0  0
104105  2  0  0  0  0
105106  1  0  0  0  0
106107  1  0  0  0  0
107108  1  0  0  0  0
108109  1  0  0  0  0
109110  1  0  0  0  0
110111  1  0  0  0  0
109112  2  0  0  0  0
112113  1  0  0  0  0
113114  1  0  0  0  0
112115  1  0  0  0  0
106116  2  0  0  0  0
116117  1  0  0  0  0
105118  1  0  0  0  0
118119  2  0  0  0  0
119120  1  0  0  0  0
119121  1  0  0  0  0
121122  1  0  0  0  0
122123  1  0  0  0  0
123124  2  0  0  0  0
124125  1  0  0  0  0
125126  1  0  0  0  0
126127  1  0  0  0  0
127128  1  0  0  0  0
128129  2  0  0  0  0
128130  2  0  0  0  0
128131  1  0  0  0  0
123132  1  0  0  0  0
132133  2  0  0  0  0
133134  1  0  0  0  0
134135  2  0  0  0  0
135136  1  0  0  0  0
136137  1  0  0  0  0
137138  1  0  0  0  0
138139  1  0  0  0  0
139140  1  0  0  0  0
138141  2  0  0  0  0
141142  1  0  0  0  0
141143  1  0  0  0  0
143144  1  0  0  0  0
135145  1  0  0  0  0
145146  2  0  0  0  0
146147  1  0  0  0  0
147148  1  0  0  0  0
148149  1  0  0  0  0
149150  1  0  0  0  0
150151  1  0  0  0  0
151152  1  0  0  0  0
150153  2  0  0  0  0
153154  1  0  0  0  0
154155  1  0  0  0  0
153156  1  0  0  0  0
147157  2  0  0  0  0
157158  1  0  0  0  0
146159  1  0  0  0  0
159160  2  0  0  0  0
160161  1  0  0  0  0
 27  1  1  0  0  0  0
 57 31  1  0  0  0  0
 87 61  1  0  0  0  0
117 91  1  0  0  0  0
125121  2  0  0  0  0
158132  1  0  0  0  0
 26  3  1  0  0  0  0
 56 33  1  0  0  0  0
 86 63  1  0  0  0  0
116 93  1  0  0  0  0
131124  1  0  0  0  0
157134  1  0  0  0  0
 12  5  2  0  0  0  0
 30 14  1  0  0  0  0
 42 35  2  0  0  0  0
 60 44  1  0  0  0  0
 72 65  2  0  0  0  0
 90 74  1  0  0  0  0
102 95  2  0  0  0  0
120104  1  0  0  0  0
143136  2  0  0  0  0
161145  1  0  0  0  0
 23 17  2  0  0  0  0
 53 47  2  0  0  0  0
 83 77  2  0  0  0  0
113107  2  0  0  0  0
154148  2  0  0  0  0
  1162  1  0  0  0  0
  2163  1  0  0  0  0
  8164  1  0  0  0  0
  8165  1  0  0  0  0
  9166  1  0  0  0  0
  9167  1  0  0  0  0
  9168  1  0  0  0  0
 20169  1  0  0  0  0
 20170  1  0  0  0  0
 21171  1  0  0  0  0
 21172  1  0  0  0  0
 21173  1  0  0  0  0
 28174  1  0  0  0  0
 32175  1  0  0  0  0
 38176  1  0  0  0  0
 38177  1  0  0  0  0
 39178  1  0  0  0  0
 39179  1  0  0  0  0
 39180  1  0  0  0  0
 50181  1  0  0  0  0
 50182  1  0  0  0  0
 51183  1  0  0  0  0
 51184  1  0  0  0  0
 51185  1  0  0  0  0
 58186  1  0  0  0  0
 62187  1  0  0  0  0
 68188  1  0  0  0  0
 68189  1  0  0  0  0
 69190  1  0  0  0  0
 69191  1  0  0  0  0
 69192  1  0  0  0  0
 80193  1  0  0  0  0
 80194  1  0  0  0  0
 81195  1  0  0  0  0
 81196  1  0  0  0  0
 81197  1  0  0  0  0
 88198  1  0  0  0  0
 92199  1  0  0  0  0
 98200  1  0  0  0  0
 98201  1  0  0  0  0
 99202  1  0  0  0  0
 99203  1  0  0  0  0
 99204  1  0  0  0  0
110205  1  0  0  0  0
110206  1  0  0  0  0
111207  1  0  0  0  0
111208  1  0  0  0  0
111209  1  0  0  0  0
118210  1  0  0  0  0
126211  1  0  0  0  0
126212  1  0  0  0  0
127213  1  0  0  0  0
127214  1  0  0  0  0
131215  1  0  0  0  0
131216  1  0  0  0  0
133217  1  0  0  0  0
139218  1  0  0  0  0
139219  1  0  0  0  0
140220  1  0  0  0  0
140221  1  0  0  0  0
140222  1  0  0  0  0
151223  1  0  0  0  0
151224  1  0  0  0  0
152225  1  0  0  0  0
152226  1  0  0  0  0
152227  1  0  0  0  0
159228  1  0  0  0  0
160229  1  0  0  0  0
M  END
