236

C          1.52540        1.01970        8.94220
S          0.92550       -0.57210        8.74570
C          0.58170       -0.30930        7.05320
C          0.95550        0.97170        6.69440
C          1.47590        1.72630        7.78330
C          1.89810        3.15130        7.60060
C          3.02950        3.25440        6.58790
S          2.72000        2.15110        5.15640
O          2.86140        2.90860        3.94090
O          3.57150        1.00510        5.31690
C          0.97290        1.62710        5.36920
C         -0.01210       -1.35330        6.26270
S          0.17530       -1.33050        4.52820
C         -0.74610       -2.79260        4.33010
C         -1.16760       -3.26360        5.55290
C         -0.75230       -2.45480        6.64240
C         -1.21840       -2.83600        8.01300
C         -2.73720       -2.83740        8.05430
S         -3.40430       -4.02500        6.82890
O         -4.35260       -3.32820        6.00100
O         -3.86850       -5.19600        7.51910
C         -1.95160       -4.48720        5.81350
C         -0.93110       -3.26450        2.99290
C         -0.17570       -2.88180        1.92220
C         -0.63450       -3.39360        0.68510
C         -0.11130       -3.12820       -0.59190
C          1.15120       -2.38950       -0.73900
C          2.30340       -2.84880       -0.10000
C          3.49880       -2.18280       -0.23830
C          3.61100       -1.02330       -1.01200
S          5.24030       -0.34580       -1.06180
C          5.22830        1.14510       -2.12050
C          5.28020        0.81340       -3.59850
C          2.44970       -0.57150       -1.62710
F          2.44280        0.54890       -2.39080
C          1.24360       -1.23580       -1.50440
C         -0.86290       -3.56900       -1.66770
C         -2.06920       -4.30110       -1.52160
C         -2.54130       -4.64350       -0.24350
C         -3.79680       -5.38640       -0.08120
C         -4.82050       -4.89410        0.72630
C         -6.01320       -5.57220        0.83830
C         -6.23550       -6.77250        0.16320
S         -7.80560       -7.54440        0.41720
C         -8.19260       -8.37090       -1.17010
C         -8.22530       -7.39720       -2.33070
C         -5.19040       -7.27080       -0.60870
C         -3.99860       -6.58810       -0.75110
F         -5.30120       -8.45350       -1.25770
C         -1.81560       -4.15930        0.83430
S         -2.24690       -4.32200        2.51760
C         -2.76440       -4.42800       -2.75330
C         -2.13930       -3.82260       -3.80320
S         -0.55710       -3.19470       -3.34520
C         -2.75710       -3.22910       -4.95570
C         -4.03060       -2.73430       -4.91870
C         -4.18740       -1.54060       -5.66570
C         -5.15690       -0.56190       -5.38850
C         -6.23440       -0.78420       -4.40670
C         -7.57780       -0.61200       -4.71990
C         -8.54560       -0.76960       -3.74890
C         -8.21600       -1.08490       -2.43070
S         -9.54410       -1.18130       -1.27060
C         -9.05710       -2.49220       -0.08790
C         -8.84200       -3.82250       -0.78080
C         -6.86430       -1.22130       -2.12880
F         -6.44710       -1.48870       -0.87390
C         -5.88780       -1.08160       -3.09260
C         -4.83510        0.72930       -5.75740
C         -3.67650        1.05940       -6.49930
C         -2.80320        0.04630       -6.94930
C         -1.63100        0.42980       -7.74390
C         -0.32980        0.06470       -7.41350
C          0.74440        0.48030       -8.17660
C          0.55840        1.26640       -9.30770
S          1.83980        1.87470      -10.35140
C          3.28080        0.83100       -9.93970
C          3.10240       -0.60340      -10.39910
C         -0.75120        1.63770       -9.62080
C         -1.82810        1.24270       -8.86180
F         -0.97170        2.41370      -10.70080
C         -3.02770       -1.21700       -6.41750
S         -1.80640       -2.45940       -6.21490
C         -3.23650        2.38450       -6.21990
C         -3.94160        2.97250       -5.20460
S         -5.45850        2.12330       -4.89180
C         -3.28290        3.60870       -4.09890
C         -3.45120        3.13580       -2.82620
C         -2.27900        3.20680       -2.03480
C         -2.01670        2.44880       -0.88300
C         -3.05190        1.65320       -0.21140
C         -4.24550        2.22010        0.23140
C         -5.14400        1.47710        0.96980
C         -4.89900        0.14060        1.27660
S         -6.03630       -0.72030        2.32080
C         -4.92190       -1.60960        3.46800
C         -3.90680       -0.69620        4.12370
C         -3.75230       -0.43510        0.73930
F         -3.49660       -1.74960        0.90920
C         -2.83050        0.29940        0.02600
C         -0.69500        2.39330       -0.46620
C          0.35120        3.11270       -1.09490
C          0.08190        3.88250       -2.24210
C          1.14150        4.56970       -2.99000
C          2.30150        3.90230       -3.38010
C          3.27230        4.55520       -4.10940
C          3.12730        5.89110       -4.47120
S          4.43840        6.66370       -5.38270
C          3.53940        7.44810       -6.77030
C          2.77250        6.43020       -7.59000
C          1.97170        6.54900       -4.06340
C          0.98200        5.90380       -3.35030
F          1.78820        7.85440       -4.35360
C         -1.22500        3.87630       -2.70270
S         -1.73550        4.42030       -4.28980
C          1.60390        2.85870       -0.48110
C          1.54380        1.94440        0.53080
S         -0.09040        1.40730        0.84150
C          2.62600        1.36410        1.25730
C          3.94430        1.69190        1.18370
C          4.77840        0.88460        1.99670
C          6.17370        0.94750        2.12470
C          6.94490        1.91270        1.33400
C          6.60810        3.26460        1.32210
C          7.26510        4.15120        0.49230
C          8.27380        3.71610       -0.36090
S          9.12980        4.76650       -1.49320
C          7.83880        5.96710       -1.98050
C          6.65860        5.29420       -2.65210
C          8.63660        2.37100       -0.29820
F          9.62520        1.91690       -1.09320
C          7.99300        1.47530        0.52820
C          6.76130        0.02810        2.97900
C          6.01840       -0.92420        3.71630
C          4.62870       -1.00560        3.56400
C          3.83640       -1.98310        4.32420
C          3.06810       -2.94750        3.68000
C          2.35890       -3.88210        4.40880
C          2.37380       -3.86470        5.79860
S          1.42130       -5.07820        6.67560
C          2.63850       -5.74270        7.87250
C          3.84500       -6.34040        7.17750
C          3.10640       -2.86420        6.42810
C          3.85070       -1.94910        5.71400
F          3.11280       -2.77250        7.77780
C          4.04470       -0.10530        2.69070
S          2.34630        0.01550        2.34020
C          6.86450       -1.72890        4.53630
C          8.16660       -1.39370        4.43630
S          8.46410       -0.08940        3.33820
H          1.87100        1.34060        9.90440
H          2.21650        3.57100        8.55700
H          1.04050        3.73440        7.25150
H          3.14350        4.25850        6.19080
H          3.97080        2.90380        7.00230
H          0.39140        2.54650        5.33690
H          0.71210        0.99280        4.53100
H         -0.83920       -2.15240        8.77060
H         -0.84610       -3.83580        8.25120
H         -3.15030       -1.86760        7.79090
H         -3.11760       -3.16190        9.01800
H         -1.39920       -5.20860        6.41200
H         -2.33420       -4.96090        4.91590
H          0.66430       -2.21590        2.01080
H          2.25460       -3.75490        0.48520
H          4.39060       -2.54870        0.24840
H          6.13300        1.66950       -1.80860
H          4.36300        1.74830       -1.85910
H          6.13960        0.18190       -3.81190
H          4.37880        0.29440       -3.91410
H          5.37060        1.73120       -4.17580
H          0.38230       -0.82550       -2.00910
H         -4.69640       -3.95200        1.23200
H         -6.80290       -5.17720        1.45780
H         -9.17900       -8.79860       -0.99010
H         -7.48210       -9.17800       -1.33320
H         -8.93350       -6.59480       -2.13680
H         -8.52450       -7.91920       -3.23730
H         -7.24370       -6.95800       -2.49740
H         -3.22340       -7.02040       -1.36560
H         -3.73830       -4.87650       -2.83020
H         -4.77690       -3.09650       -4.23630
H         -7.86330       -0.36400       -5.73070
H         -9.58830       -0.64300       -3.99470
H         -8.18270       -2.16680        0.47120
H         -9.91220       -2.53680        0.58670
H         -8.72230       -4.60890       -0.03910
H         -7.94840       -3.79810       -1.40200
H         -9.69730       -4.06300       -1.41000
H         -4.85370       -1.17000       -2.79410
H         -0.14120       -0.52290       -6.52950
H          1.73670        0.19340       -7.86930
H          3.47450        0.90600       -8.87040
H          4.10060        1.31050      -10.47450
H          2.25250       -1.06990       -9.90540
H          3.99680       -1.17910      -10.16910
H          2.93500       -0.63480      -11.47300
H         -2.81960        1.55640       -9.14950
H         -2.28780        2.76130       -6.56030
H         -4.32540        2.59050       -2.51840
H         -4.44460        3.26270        0.03400
H         -6.04930        1.92910        1.34390
H         -5.58880       -2.03470        4.21610
H         -4.43620       -2.42680        2.94070
H         -4.39780        0.17040        4.56240
H         -3.40990       -1.25530        4.91300
H         -3.15770       -0.35020        3.41200
H         -1.95310       -0.20230       -0.35230
H          2.41680        2.85640       -3.14720
H          4.16500        4.03640       -4.42180
H          4.33180        7.91310       -7.35650
H          2.89010        8.22460       -6.37150
H          1.99130        5.96010       -6.99450
H          3.43980        5.65390       -7.95890
H          2.30640        6.92170       -8.44140
H          0.10300        6.45790       -3.05950
H          2.51710        3.32750       -0.79760
H          4.31540        2.49080        0.56960
H          5.83200        3.62230        1.98240
H          6.98750        5.19350        0.50740
H          7.54230        6.54660       -1.10750
H          8.35720        6.62570       -2.67630
H          5.96370        6.04490       -3.02260
H          6.99940        4.69760       -3.49520
H          6.13140        4.64380       -1.95600
H          8.28420        0.43720        0.50780
H          3.04880       -2.97550        2.60210
H          1.77920       -4.64340        3.90980
H          2.91620       -4.94900        8.56290
H          2.07670       -6.50440        8.41260
H          4.39040       -5.57720        6.62450
H          4.51470       -6.77640        7.91600
H          3.53840       -7.11810        6.48120
H          4.39910       -1.18050        6.23330
H          6.49710       -2.52110        5.16350
H          9.00280       -1.83640        4.94160
