
  xtb     03042204453D
 energy: -415.742619505606 gnorm: 0.000670479506 xtb: 6.4.1 (unknown)
236259  0     0  0            999 V2000
    1.5254    1.0197    8.9422 C   0  0  0  0  0  0  0  0  0  0  0  0
    0.9255   -0.5721    8.7457 S   0  0  0  0  0  0  0  0  0  0  0  0
    0.5817   -0.3093    7.0532 C   0  0  0  0  0  0  0  0  0  0  0  0
    0.9555    0.9717    6.6944 C   0  0  0  0  0  0  0  0  0  0  0  0
    1.4759    1.7263    7.7833 C   0  0  0  0  0  0  0  0  0  0  0  0
    1.8981    3.1513    7.6006 C   0  0  0  0  0  0  0  0  0  0  0  0
    3.0295    3.2544    6.5879 C   0  0  0  0  0  0  0  0  0  0  0  0
    2.7200    2.1511    5.1564 S   0  0  0  0  0  6  0  0  0  0  0  0
    2.8614    2.9086    3.9409 O   0  0  0  0  0  0  0  0  0  0  0  0
    3.5715    1.0051    5.3169 O   0  0  0  0  0  0  0  0  0  0  0  0
    0.9729    1.6271    5.3692 C   0  0  0  0  0  0  0  0  0  0  0  0
   -0.0121   -1.3533    6.2627 C   0  0  0  0  0  0  0  0  0  0  0  0
    0.1753   -1.3305    4.5282 S   0  0  0  0  0  0  0  0  0  0  0  0
   -0.7461   -2.7926    4.3301 C   0  0  0  0  0  0  0  0  0  0  0  0
   -1.1676   -3.2636    5.5529 C   0  0  0  0  0  0  0  0  0  0  0  0
   -0.7523   -2.4548    6.6424 C   0  0  0  0  0  0  0  0  0  0  0  0
   -1.2184   -2.8360    8.0130 C   0  0  0  0  0  0  0  0  0  0  0  0
   -2.7372   -2.8374    8.0543 C   0  0  0  0  0  0  0  0  0  0  0  0
   -3.4043   -4.0250    6.8289 S   0  0  0  0  0  6  0  0  0  0  0  0
   -4.3526   -3.3282    6.0010 O   0  0  0  0  0  0  0  0  0  0  0  0
   -3.8685   -5.1960    7.5191 O   0  0  0  0  0  0  0  0  0  0  0  0
   -1.9516   -4.4872    5.8135 C   0  0  0  0  0  0  0  0  0  0  0  0
   -0.9311   -3.2645    2.9929 C   0  0  0  0  0  0  0  0  0  0  0  0
   -0.1757   -2.8818    1.9222 C   0  0  0  0  0  0  0  0  0  0  0  0
   -0.6345   -3.3936    0.6851 C   0  0  0  0  0  0  0  0  0  0  0  0
   -0.1113   -3.1282   -0.5919 C   0  0  0  0  0  0  0  0  0  0  0  0
    1.1512   -2.3895   -0.7390 C   0  0  0  0  0  0  0  0  0  0  0  0
    2.3034   -2.8488   -0.1000 C   0  0  0  0  0  0  0  0  0  0  0  0
    3.4988   -2.1828   -0.2383 C   0  0  0  0  0  0  0  0  0  0  0  0
    3.6110   -1.0233   -1.0120 C   0  0  0  0  0  0  0  0  0  0  0  0
    5.2403   -0.3458   -1.0618 S   0  0  0  0  0  0  0  0  0  0  0  0
    5.2283    1.1451   -2.1205 C   0  0  0  0  0  0  0  0  0  0  0  0
    5.2802    0.8134   -3.5985 C   0  0  0  0  0  0  0  0  0  0  0  0
    2.4497   -0.5715   -1.6271 C   0  0  0  0  0  0  0  0  0  0  0  0
    2.4428    0.5489   -2.3908 F   0  0  0  0  0  0  0  0  0  0  0  0
    1.2436   -1.2358   -1.5044 C   0  0  0  0  0  0  0  0  0  0  0  0
   -0.8629   -3.5690   -1.6677 C   0  0  0  0  0  0  0  0  0  0  0  0
   -2.0692   -4.3011   -1.5216 C   0  0  0  0  0  0  0  0  0  0  0  0
   -2.5413   -4.6435   -0.2435 C   0  0  0  0  0  0  0  0  0  0  0  0
   -3.7968   -5.3864   -0.0812 C   0  0  0  0  0  0  0  0  0  0  0  0
   -4.8205   -4.8941    0.7263 C   0  0  0  0  0  0  0  0  0  0  0  0
   -6.0132   -5.5722    0.8383 C   0  0  0  0  0  0  0  0  0  0  0  0
   -6.2355   -6.7725    0.1632 C   0  0  0  0  0  0  0  0  0  0  0  0
   -7.8056   -7.5444    0.4172 S   0  0  0  0  0  0  0  0  0  0  0  0
   -8.1926   -8.3709   -1.1701 C   0  0  0  0  0  0  0  0  0  0  0  0
   -8.2253   -7.3972   -2.3307 C   0  0  0  0  0  0  0  0  0  0  0  0
   -5.1904   -7.2708   -0.6087 C   0  0  0  0  0  0  0  0  0  0  0  0
   -3.9986   -6.5881   -0.7511 C   0  0  0  0  0  0  0  0  0  0  0  0
   -5.3012   -8.4535   -1.2577 F   0  0  0  0  0  0  0  0  0  0  0  0
   -1.8156   -4.1593    0.8343 C   0  0  0  0  0  0  0  0  0  0  0  0
   -2.2469   -4.3220    2.5176 S   0  0  0  0  0  0  0  0  0  0  0  0
   -2.7644   -4.4280   -2.7533 C   0  0  0  0  0  0  0  0  0  0  0  0
   -2.1393   -3.8226   -3.8032 C   0  0  0  0  0  0  0  0  0  0  0  0
   -0.5571   -3.1947   -3.3452 S   0  0  0  0  0  0  0  0  0  0  0  0
   -2.7571   -3.2291   -4.9557 C   0  0  0  0  0  0  0  0  0  0  0  0
   -4.0306   -2.7343   -4.9187 C   0  0  0  0  0  0  0  0  0  0  0  0
   -4.1874   -1.5406   -5.6657 C   0  0  0  0  0  0  0  0  0  0  0  0
   -5.1569   -0.5619   -5.3885 C   0  0  0  0  0  0  0  0  0  0  0  0
   -6.2344   -0.7842   -4.4067 C   0  0  0  0  0  0  0  0  0  0  0  0
   -7.5778   -0.6120   -4.7199 C   0  0  0  0  0  0  0  0  0  0  0  0
   -8.5456   -0.7696   -3.7489 C   0  0  0  0  0  0  0  0  0  0  0  0
   -8.2160   -1.0849   -2.4307 C   0  0  0  0  0  0  0  0  0  0  0  0
   -9.5441   -1.1813   -1.2706 S   0  0  0  0  0  0  0  0  0  0  0  0
   -9.0571   -2.4922   -0.0879 C   0  0  0  0  0  0  0  0  0  0  0  0
   -8.8420   -3.8225   -0.7808 C   0  0  0  0  0  0  0  0  0  0  0  0
   -6.8643   -1.2213   -2.1288 C   0  0  0  0  0  0  0  0  0  0  0  0
   -6.4471   -1.4887   -0.8739 F   0  0  0  0  0  0  0  0  0  0  0  0
   -5.8878   -1.0816   -3.0926 C   0  0  0  0  0  0  0  0  0  0  0  0
   -4.8351    0.7293   -5.7574 C   0  0  0  0  0  0  0  0  0  0  0  0
   -3.6765    1.0594   -6.4993 C   0  0  0  0  0  0  0  0  0  0  0  0
   -2.8032    0.0463   -6.9493 C   0  0  0  0  0  0  0  0  0  0  0  0
   -1.6310    0.4298   -7.7439 C   0  0  0  0  0  0  0  0  0  0  0  0
   -0.3298    0.0647   -7.4135 C   0  0  0  0  0  0  0  0  0  0  0  0
    0.7444    0.4803   -8.1766 C   0  0  0  0  0  0  0  0  0  0  0  0
    0.5584    1.2664   -9.3077 C   0  0  0  0  0  0  0  0  0  0  0  0
    1.8398    1.8747  -10.3514 S   0  0  0  0  0  0  0  0  0  0  0  0
    3.2808    0.8310   -9.9397 C   0  0  0  0  0  0  0  0  0  0  0  0
    3.1024   -0.6034  -10.3991 C   0  0  0  0  0  0  0  0  0  0  0  0
   -0.7512    1.6377   -9.6208 C   0  0  0  0  0  0  0  0  0  0  0  0
   -1.8281    1.2427   -8.8618 C   0  0  0  0  0  0  0  0  0  0  0  0
   -0.9717    2.4137  -10.7008 F   0  0  0  0  0  0  0  0  0  0  0  0
   -3.0277   -1.2170   -6.4175 C   0  0  0  0  0  0  0  0  0  0  0  0
   -1.8064   -2.4594   -6.2149 S   0  0  0  0  0  0  0  0  0  0  0  0
   -3.2365    2.3845   -6.2199 C   0  0  0  0  0  0  0  0  0  0  0  0
   -3.9416    2.9725   -5.2046 C   0  0  0  0  0  0  0  0  0  0  0  0
   -5.4585    2.1233   -4.8918 S   0  0  0  0  0  0  0  0  0  0  0  0
   -3.2829    3.6087   -4.0989 C   0  0  0  0  0  0  0  0  0  0  0  0
   -3.4512    3.1358   -2.8262 C   0  0  0  0  0  0  0  0  0  0  0  0
   -2.2790    3.2068   -2.0348 C   0  0  0  0  0  0  0  0  0  0  0  0
   -2.0167    2.4488   -0.8830 C   0  0  0  0  0  0  0  0  0  0  0  0
   -3.0519    1.6532   -0.2114 C   0  0  0  0  0  0  0  0  0  0  0  0
   -4.2455    2.2201    0.2314 C   0  0  0  0  0  0  0  0  0  0  0  0
   -5.1440    1.4771    0.9698 C   0  0  0  0  0  0  0  0  0  0  0  0
   -4.8990    0.1406    1.2766 C   0  0  0  0  0  0  0  0  0  0  0  0
   -6.0363   -0.7203    2.3208 S   0  0  0  0  0  0  0  0  0  0  0  0
   -4.9219   -1.6096    3.4680 C   0  0  0  0  0  0  0  0  0  0  0  0
   -3.9068   -0.6962    4.1237 C   0  0  0  0  0  0  0  0  0  0  0  0
   -3.7523   -0.4351    0.7393 C   0  0  0  0  0  0  0  0  0  0  0  0
   -3.4966   -1.7496    0.9092 F   0  0  0  0  0  0  0  0  0  0  0  0
   -2.8305    0.2994    0.0260 C   0  0  0  0  0  0  0  0  0  0  0  0
   -0.6950    2.3933   -0.4662 C   0  0  0  0  0  0  0  0  0  0  0  0
    0.3512    3.1127   -1.0949 C   0  0  0  0  0  0  0  0  0  0  0  0
    0.0819    3.8825   -2.2421 C   0  0  0  0  0  0  0  0  0  0  0  0
    1.1415    4.5697   -2.9900 C   0  0  0  0  0  0  0  0  0  0  0  0
    2.3015    3.9023   -3.3801 C   0  0  0  0  0  0  0  0  0  0  0  0
    3.2723    4.5552   -4.1094 C   0  0  0  0  0  0  0  0  0  0  0  0
    3.1273    5.8911   -4.4712 C   0  0  0  0  0  0  0  0  0  0  0  0
    4.4384    6.6637   -5.3827 S   0  0  0  0  0  0  0  0  0  0  0  0
    3.5394    7.4481   -6.7703 C   0  0  0  0  0  0  0  0  0  0  0  0
    2.7725    6.4302   -7.5900 C   0  0  0  0  0  0  0  0  0  0  0  0
    1.9717    6.5490   -4.0634 C   0  0  0  0  0  0  0  0  0  0  0  0
    0.9820    5.9038   -3.3503 C   0  0  0  0  0  0  0  0  0  0  0  0
    1.7882    7.8544   -4.3536 F   0  0  0  0  0  0  0  0  0  0  0  0
   -1.2250    3.8763   -2.7027 C   0  0  0  0  0  0  0  0  0  0  0  0
   -1.7355    4.4203   -4.2898 S   0  0  0  0  0  0  0  0  0  0  0  0
    1.6039    2.8587   -0.4811 C   0  0  0  0  0  0  0  0  0  0  0  0
    1.5438    1.9444    0.5308 C   0  0  0  0  0  0  0  0  0  0  0  0
   -0.0904    1.4073    0.8415 S   0  0  0  0  0  0  0  0  0  0  0  0
    2.6260    1.3641    1.2573 C   0  0  0  0  0  0  0  0  0  0  0  0
    3.9443    1.6919    1.1837 C   0  0  0  0  0  0  0  0  0  0  0  0
    4.7784    0.8846    1.9967 C   0  0  0  0  0  0  0  0  0  0  0  0
    6.1737    0.9475    2.1247 C   0  0  0  0  0  0  0  0  0  0  0  0
    6.9449    1.9127    1.3340 C   0  0  0  0  0  0  0  0  0  0  0  0
    6.6081    3.2646    1.3221 C   0  0  0  0  0  0  0  0  0  0  0  0
    7.2651    4.1512    0.4923 C   0  0  0  0  0  0  0  0  0  0  0  0
    8.2738    3.7161   -0.3609 C   0  0  0  0  0  0  0  0  0  0  0  0
    9.1298    4.7665   -1.4932 S   0  0  0  0  0  0  0  0  0  0  0  0
    7.8388    5.9671   -1.9805 C   0  0  0  0  0  0  0  0  0  0  0  0
    6.6586    5.2942   -2.6521 C   0  0  0  0  0  0  0  0  0  0  0  0
    8.6366    2.3710   -0.2982 C   0  0  0  0  0  0  0  0  0  0  0  0
    9.6252    1.9169   -1.0932 F   0  0  0  0  0  0  0  0  0  0  0  0
    7.9930    1.4753    0.5282 C   0  0  0  0  0  0  0  0  0  0  0  0
    6.7613    0.0281    2.9790 C   0  0  0  0  0  0  0  0  0  0  0  0
    6.0184   -0.9242    3.7163 C   0  0  0  0  0  0  0  0  0  0  0  0
    4.6287   -1.0056    3.5640 C   0  0  0  0  0  0  0  0  0  0  0  0
    3.8364   -1.9831    4.3242 C   0  0  0  0  0  0  0  0  0  0  0  0
    3.0681   -2.9475    3.6800 C   0  0  0  0  0  0  0  0  0  0  0  0
    2.3589   -3.8821    4.4088 C   0  0  0  0  0  0  0  0  0  0  0  0
    2.3738   -3.8647    5.7986 C   0  0  0  0  0  0  0  0  0  0  0  0
    1.4213   -5.0782    6.6756 S   0  0  0  0  0  0  0  0  0  0  0  0
    2.6385   -5.7427    7.8725 C   0  0  0  0  0  0  0  0  0  0  0  0
    3.8450   -6.3404    7.1775 C   0  0  0  0  0  0  0  0  0  0  0  0
    3.1064   -2.8642    6.4281 C   0  0  0  0  0  0  0  0  0  0  0  0
    3.8507   -1.9491    5.7140 C   0  0  0  0  0  0  0  0  0  0  0  0
    3.1128   -2.7725    7.7778 F   0  0  0  0  0  0  0  0  0  0  0  0
    4.0447   -0.1053    2.6907 C   0  0  0  0  0  0  0  0  0  0  0  0
    2.3463    0.0155    2.3402 S   0  0  0  0  0  0  0  0  0  0  0  0
    6.8645   -1.7289    4.5363 C   0  0  0  0  0  0  0  0  0  0  0  0
    8.1666   -1.3937    4.4363 C   0  0  0  0  0  0  0  0  0  0  0  0
    8.4641   -0.0894    3.3382 S   0  0  0  0  0  0  0  0  0  0  0  0
    1.8710    1.3406    9.9044 H   0  0  0  0  0  0  0  0  0  0  0  0
    2.2165    3.5710    8.5570 H   0  0  0  0  0  0  0  0  0  0  0  0
    1.0405    3.7344    7.2515 H   0  0  0  0  0  0  0  0  0  0  0  0
    3.1435    4.2585    6.1908 H   0  0  0  0  0  0  0  0  0  0  0  0
    3.9708    2.9038    7.0023 H   0  0  0  0  0  0  0  0  0  0  0  0
    0.3914    2.5465    5.3369 H   0  0  0  0  0  0  0  0  0  0  0  0
    0.7121    0.9928    4.5310 H   0  0  0  0  0  0  0  0  0  0  0  0
   -0.8392   -2.1524    8.7706 H   0  0  0  0  0  0  0  0  0  0  0  0
   -0.8461   -3.8358    8.2512 H   0  0  0  0  0  0  0  0  0  0  0  0
   -3.1503   -1.8676    7.7909 H   0  0  0  0  0  0  0  0  0  0  0  0
   -3.1176   -3.1619    9.0180 H   0  0  0  0  0  0  0  0  0  0  0  0
   -1.3992   -5.2086    6.4120 H   0  0  0  0  0  0  0  0  0  0  0  0
   -2.3342   -4.9609    4.9159 H   0  0  0  0  0  0  0  0  0  0  0  0
    0.6643   -2.2159    2.0108 H   0  0  0  0  0  0  0  0  0  0  0  0
    2.2546   -3.7549    0.4852 H   0  0  0  0  0  0  0  0  0  0  0  0
    4.3906   -2.5487    0.2484 H   0  0  0  0  0  0  0  0  0  0  0  0
    6.1330    1.6695   -1.8086 H   0  0  0  0  0  0  0  0  0  0  0  0
    4.3630    1.7483   -1.8591 H   0  0  0  0  0  0  0  0  0  0  0  0
    6.1396    0.1819   -3.8119 H   0  0  0  0  0  0  0  0  0  0  0  0
    4.3788    0.2944   -3.9141 H   0  0  0  0  0  0  0  0  0  0  0  0
    5.3706    1.7312   -4.1758 H   0  0  0  0  0  0  0  0  0  0  0  0
    0.3823   -0.8255   -2.0091 H   0  0  0  0  0  0  0  0  0  0  0  0
   -4.6964   -3.9520    1.2320 H   0  0  0  0  0  0  0  0  0  0  0  0
   -6.8029   -5.1772    1.4578 H   0  0  0  0  0  0  0  0  0  0  0  0
   -9.1790   -8.7986   -0.9901 H   0  0  0  0  0  0  0  0  0  0  0  0
   -7.4821   -9.1780   -1.3332 H   0  0  0  0  0  0  0  0  0  0  0  0
   -8.9335   -6.5948   -2.1368 H   0  0  0  0  0  0  0  0  0  0  0  0
   -8.5245   -7.9192   -3.2373 H   0  0  0  0  0  0  0  0  0  0  0  0
   -7.2437   -6.9580   -2.4974 H   0  0  0  0  0  0  0  0  0  0  0  0
   -3.2234   -7.0204   -1.3656 H   0  0  0  0  0  0  0  0  0  0  0  0
   -3.7383   -4.8765   -2.8302 H   0  0  0  0  0  0  0  0  0  0  0  0
   -4.7769   -3.0965   -4.2363 H   0  0  0  0  0  0  0  0  0  0  0  0
   -7.8633   -0.3640   -5.7307 H   0  0  0  0  0  0  0  0  0  0  0  0
   -9.5883   -0.6430   -3.9947 H   0  0  0  0  0  0  0  0  0  0  0  0
   -8.1827   -2.1668    0.4712 H   0  0  0  0  0  0  0  0  0  0  0  0
   -9.9122   -2.5368    0.5867 H   0  0  0  0  0  0  0  0  0  0  0  0
   -8.7223   -4.6089   -0.0391 H   0  0  0  0  0  0  0  0  0  0  0  0
   -7.9484   -3.7981   -1.4020 H   0  0  0  0  0  0  0  0  0  0  0  0
   -9.6973   -4.0630   -1.4100 H   0  0  0  0  0  0  0  0  0  0  0  0
   -4.8537   -1.1700   -2.7941 H   0  0  0  0  0  0  0  0  0  0  0  0
   -0.1412   -0.5229   -6.5295 H   0  0  0  0  0  0  0  0  0  0  0  0
    1.7367    0.1934   -7.8693 H   0  0  0  0  0  0  0  0  0  0  0  0
    3.4745    0.9060   -8.8704 H   0  0  0  0  0  0  0  0  0  0  0  0
    4.1006    1.3105  -10.4745 H   0  0  0  0  0  0  0  0  0  0  0  0
    2.2525   -1.0699   -9.9054 H   0  0  0  0  0  0  0  0  0  0  0  0
    3.9968   -1.1791  -10.1691 H   0  0  0  0  0  0  0  0  0  0  0  0
    2.9350   -0.6348  -11.4730 H   0  0  0  0  0  0  0  0  0  0  0  0
   -2.8196    1.5564   -9.1495 H   0  0  0  0  0  0  0  0  0  0  0  0
   -2.2878    2.7613   -6.5603 H   0  0  0  0  0  0  0  0  0  0  0  0
   -4.3254    2.5905   -2.5184 H   0  0  0  0  0  0  0  0  0  0  0  0
   -4.4446    3.2627    0.0340 H   0  0  0  0  0  0  0  0  0  0  0  0
   -6.0493    1.9291    1.3439 H   0  0  0  0  0  0  0  0  0  0  0  0
   -5.5888   -2.0347    4.2161 H   0  0  0  0  0  0  0  0  0  0  0  0
   -4.4362   -2.4268    2.9407 H   0  0  0  0  0  0  0  0  0  0  0  0
   -4.3978    0.1704    4.5624 H   0  0  0  0  0  0  0  0  0  0  0  0
   -3.4099   -1.2553    4.9130 H   0  0  0  0  0  0  0  0  0  0  0  0
   -3.1577   -0.3502    3.4120 H   0  0  0  0  0  0  0  0  0  0  0  0
   -1.9531   -0.2023   -0.3523 H   0  0  0  0  0  0  0  0  0  0  0  0
    2.4168    2.8564   -3.1472 H   0  0  0  0  0  0  0  0  0  0  0  0
    4.1650    4.0364   -4.4218 H   0  0  0  0  0  0  0  0  0  0  0  0
    4.3318    7.9131   -7.3565 H   0  0  0  0  0  0  0  0  0  0  0  0
    2.8901    8.2246   -6.3715 H   0  0  0  0  0  0  0  0  0  0  0  0
    1.9913    5.9601   -6.9945 H   0  0  0  0  0  0  0  0  0  0  0  0
    3.4398    5.6539   -7.9589 H   0  0  0  0  0  0  0  0  0  0  0  0
    2.3064    6.9217   -8.4414 H   0  0  0  0  0  0  0  0  0  0  0  0
    0.1030    6.4579   -3.0595 H   0  0  0  0  0  0  0  0  0  0  0  0
    2.5171    3.3275   -0.7976 H   0  0  0  0  0  0  0  0  0  0  0  0
    4.3154    2.4908    0.5696 H   0  0  0  0  0  0  0  0  0  0  0  0
    5.8320    3.6223    1.9824 H   0  0  0  0  0  0  0  0  0  0  0  0
    6.9875    5.1935    0.5074 H   0  0  0  0  0  0  0  0  0  0  0  0
    7.5423    6.5466   -1.1075 H   0  0  0  0  0  0  0  0  0  0  0  0
    8.3572    6.6257   -2.6763 H   0  0  0  0  0  0  0  0  0  0  0  0
    5.9637    6.0449   -3.0226 H   0  0  0  0  0  0  0  0  0  0  0  0
    6.9994    4.6976   -3.4952 H   0  0  0  0  0  0  0  0  0  0  0  0
    6.1314    4.6438   -1.9560 H   0  0  0  0  0  0  0  0  0  0  0  0
    8.2842    0.4372    0.5078 H   0  0  0  0  0  0  0  0  0  0  0  0
    3.0488   -2.9755    2.6021 H   0  0  0  0  0  0  0  0  0  0  0  0
    1.7792   -4.6434    3.9098 H   0  0  0  0  0  0  0  0  0  0  0  0
    2.9162   -4.9490    8.5629 H   0  0  0  0  0  0  0  0  0  0  0  0
    2.0767   -6.5044    8.4126 H   0  0  0  0  0  0  0  0  0  0  0  0
    4.3904   -5.5772    6.6245 H   0  0  0  0  0  0  0  0  0  0  0  0
    4.5147   -6.7764    7.9160 H   0  0  0  0  0  0  0  0  0  0  0  0
    3.5384   -7.1181    6.4812 H   0  0  0  0  0  0  0  0  0  0  0  0
    4.3991   -1.1805    6.2333 H   0  0  0  0  0  0  0  0  0  0  0  0
    6.4971   -2.5211    5.1635 H   0  0  0  0  0  0  0  0  0  0  0  0
    9.0028   -1.8364    4.9416 H   0  0  0  0  0  0  0  0  0  0  0  0
  1  2  1  0  0  0  0
  2  3  1  0  0  0  0
  3  4  2  0  0  0  0
  4  5  1  0  0  0  0
  5  6  1  0  0  0  0
  6  7  1  0  0  0  0
  7  8  1  0  0  0  0
  8  9  2  0  0  0  0
  8 10  2  0  0  0  0
  8 11  1  0  0  0  0
  3 12  1  0  0  0  0
 12 13  1  0  0  0  0
 13 14  1  0  0  0  0
 14 15  2  0  0  0  0
 15 16  1  0  0  0  0
 16 17  1  0  0  0  0
 17 18  1  0  0  0  0
 18 19  1  0  0  0  0
 19 20  2  0  0  0  0
 19 21  2  0  0  0  0
 19 22  1  0  0  0  0
 14 23  1  0  0  0  0
 23 24  2  0  0  0  0
 24 25  1  0  0  0  0
 25 26  2  0  0  0  0
 26 27  1  0  0  0  0
 27 28  2  0  0  0  0
 28 29  1  0  0  0  0
 29 30  2  0  0  0  0
 30 31  1  0  0  0  0
 31 32  1  0  0  0  0
 32 33  1  0  0  0  0
 30 34  1  0  0  0  0
 34 35  1  0  0  0  0
 34 36  2  0  0  0  0
 26 37  1  0  0  0  0
 37 38  2  0  0  0  0
 38 39  1  0  0  0  0
 39 40  1  0  0  0  0
 40 41  2  0  0  0  0
 41 42  1  0  0  0  0
 42 43  2  0  0  0  0
 43 44  1  0  0  0  0
 44 45  1  0  0  0  0
 45 46  1  0  0  0  0
 43 47  1  0  0  0  0
 47 48  2  0  0  0  0
 47 49  1  0  0  0  0
 39 50  2  0  0  0  0
 50 51  1  0  0  0  0
 38 52  1  0  0  0  0
 52 53  2  0  0  0  0
 53 54  1  0  0  0  0
 53 55  1  0  0  0  0
 55 56  2  0  0  0  0
 56 57  1  0  0  0  0
 57 58  2  0  0  0  0
 58 59  1  0  0  0  0
 59 60  2  0  0  0  0
 60 61  1  0  0  0  0
 61 62  2  0  0  0  0
 62 63  1  0  0  0  0
 63 64  1  0  0  0  0
 64 65  1  0  0  0  0
 62 66  1  0  0  0  0
 66 67  1  0  0  0  0
 66 68  2  0  0  0  0
 58 69  1  0  0  0  0
 69 70  2  0  0  0  0
 70 71  1  0  0  0  0
 71 72  1  0  0  0  0
 72 73  2  0  0  0  0
 73 74  1  0  0  0  0
 74 75  2  0  0  0  0
 75 76  1  0  0  0  0
 76 77  1  0  0  0  0
 77 78  1  0  0  0  0
 75 79  1  0  0  0  0
 79 80  2  0  0  0  0
 79 81  1  0  0  0  0
 71 82  2  0  0  0  0
 82 83  1  0  0  0  0
 70 84  1  0  0  0  0
 84 85  2  0  0  0  0
 85 86  1  0  0  0  0
 85 87  1  0  0  0  0
 87 88  2  0  0  0  0
 88 89  1  0  0  0  0
 89 90  2  0  0  0  0
 90 91  1  0  0  0  0
 91 92  2  0  0  0  0
 92 93  1  0  0  0  0
 93 94  2  0  0  0  0
 94 95  1  0  0  0  0
 95 96  1  0  0  0  0
 96 97  1  0  0  0  0
 94 98  1  0  0  0  0
 98 99  1  0  0  0  0
 98100  2  0  0  0  0
 90101  1  0  0  0  0
101102  2  0  0  0  0
102103  1  0  0  0  0
103104  1  0  0  0  0
104105  2  0  0  0  0
105106  1  0  0  0  0
106107  2  0  0  0  0
107108  1  0  0  0  0
108109  1  0  0  0  0
109110  1  0  0  0  0
107111  1  0  0  0  0
111112  2  0  0  0  0
111113  1  0  0  0  0
103114  2  0  0  0  0
114115  1  0  0  0  0
102116  1  0  0  0  0
116117  2  0  0  0  0
117118  1  0  0  0  0
117119  1  0  0  0  0
119120  2  0  0  0  0
120121  1  0  0  0  0
121122  2  0  0  0  0
122123  1  0  0  0  0
123124  2  0  0  0  0
124125  1  0  0  0  0
125126  2  0  0  0  0
126127  1  0  0  0  0
127128  1  0  0  0  0
128129  1  0  0  0  0
126130  1  0  0  0  0
130131  1  0  0  0  0
130132  2  0  0  0  0
122133  1  0  0  0  0
133134  2  0  0  0  0
134135  1  0  0  0  0
135136  1  0  0  0  0
136137  2  0  0  0  0
137138  1  0  0  0  0
138139  2  0  0  0  0
139140  1  0  0  0  0
140141  1  0  0  0  0
141142  1  0  0  0  0
139143  1  0  0  0  0
143144  2  0  0  0  0
143145  1  0  0  0  0
135146  2  0  0  0  0
146147  1  0  0  0  0
134148  1  0  0  0  0
148149  2  0  0  0  0
149150  1  0  0  0  0
  5  1  2  0  0  0  0
 16 12  2  0  0  0  0
 51 23  1  0  0  0  0
 83 55  1  0  0  0  0
115 87  1  0  0  0  0
147119  1  0  0  0  0
 11  4  1  0  0  0  0
 22 15  1  0  0  0  0
 50 25  1  0  0  0  0
 82 57  1  0  0  0  0
114 89  1  0  0  0  0
146121  1  0  0  0  0
 36 27  1  0  0  0  0
 54 37  1  0  0  0  0
 68 59  1  0  0  0  0
 86 69  1  0  0  0  0
100 91  1  0  0  0  0
118101  1  0  0  0  0
132123  1  0  0  0  0
150133  1  0  0  0  0
 48 40  1  0  0  0  0
 80 72  1  0  0  0  0
112104  1  0  0  0  0
144136  1  0  0  0  0
  1151  1  0  0  0  0
  6152  1  0  0  0  0
  6153  1  0  0  0  0
  7154  1  0  0  0  0
  7155  1  0  0  0  0
 11156  1  0  0  0  0
 11157  1  0  0  0  0
 17158  1  0  0  0  0
 17159  1  0  0  0  0
 18160  1  0  0  0  0
 18161  1  0  0  0  0
 22162  1  0  0  0  0
 22163  1  0  0  0  0
 24164  1  0  0  0  0
 28165  1  0  0  0  0
 29166  1  0  0  0  0
 32167  1  0  0  0  0
 32168  1  0  0  0  0
 33169  1  0  0  0  0
 33170  1  0  0  0  0
 33171  1  0  0  0  0
 36172  1  0  0  0  0
 41173  1  0  0  0  0
 42174  1  0  0  0  0
 45175  1  0  0  0  0
 45176  1  0  0  0  0
 46177  1  0  0  0  0
 46178  1  0  0  0  0
 46179  1  0  0  0  0
 48180  1  0  0  0  0
 52181  1  0  0  0  0
 56182  1  0  0  0  0
 60183  1  0  0  0  0
 61184  1  0  0  0  0
 64185  1  0  0  0  0
 64186  1  0  0  0  0
 65187  1  0  0  0  0
 65188  1  0  0  0  0
 65189  1  0  0  0  0
 68190  1  0  0  0  0
 73191  1  0  0  0  0
 74192  1  0  0  0  0
 77193  1  0  0  0  0
 77194  1  0  0  0  0
 78195  1  0  0  0  0
 78196  1  0  0  0  0
 78197  1  0  0  0  0
 80198  1  0  0  0  0
 84199  1  0  0  0  0
 88200  1  0  0  0  0
 92201  1  0  0  0  0
 93202  1  0  0  0  0
 96203  1  0  0  0  0
 96204  1  0  0  0  0
 97205  1  0  0  0  0
 97206  1  0  0  0  0
 97207  1  0  0  0  0
100208  1  0  0  0  0
105209  1  0  0  0  0
106210  1  0  0  0  0
109211  1  0  0  0  0
109212  1  0  0  0  0
110213  1  0  0  0  0
110214  1  0  0  0  0
110215  1  0  0  0  0
112216  1  0  0  0  0
116217  1  0  0  0  0
120218  1  0  0  0  0
124219  1  0  0  0  0
125220  1  0  0  0  0
128221  1  0  0  0  0
128222  1  0  0  0  0
129223  1  0  0  0  0
129224  1  0  0  0  0
129225  1  0  0  0  0
132226  1  0  0  0  0
137227  1  0  0  0  0
138228  1  0  0  0  0
141229  1  0  0  0  0
141230  1  0  0  0  0
142231  1  0  0  0  0
142232  1  0  0  0  0
142233  1  0  0  0  0
144234  1  0  0  0  0
148235  1  0  0  0  0
149236  1  0  0  0  0
M  END
