230

C         -7.53610      -18.01930        6.11980
C         -7.02880      -17.78710        4.89210
C         -7.05530      -16.40730        4.53480
C         -6.55560      -15.80180        3.37180
C         -5.96290      -16.58500        2.29850
S         -6.83800      -17.87700        1.53160
C         -5.53490      -18.22250        0.44680
C         -5.65410      -19.27670       -0.59780
C         -6.24990      -18.70430       -1.88620
C         -4.49350      -17.37360        0.67390
Cl        -3.02060      -17.41270       -0.20470
C         -4.73030      -16.44590        1.72400
Cl        -3.53960      -15.33260        2.25220
C         -6.64710      -14.41780        3.29080
C         -7.21200      -13.62330        4.31890
C         -7.71670      -14.22950        5.48170
C         -8.29870      -13.43760        6.55280
S         -7.42690      -12.11300        7.26980
C         -8.71160      -11.75840        8.37360
C         -8.58170      -10.67520        9.38670
C         -7.85530      -11.18020       10.63590
C         -9.74420      -12.62840        8.19050
C         -9.51660      -13.57840        7.15820
Cl       -10.70660      -14.71490        6.68140
Cl       -11.19930      -12.58990        9.09890
C         -7.61960      -15.61390        5.56280
S         -8.08500      -16.59200        6.92490
C         -7.21380      -12.24830        3.98190
C         -6.67260      -11.98680        2.75650
S         -6.14610      -13.44150        1.94180
C         -6.48990      -10.70420        2.15540
C         -6.74780       -9.48950        2.72210
C         -6.42880       -8.39530        1.88350
C         -6.51850       -7.02360        2.18070
C         -7.03550       -6.56240        3.45880
S         -8.59060       -7.08110        4.04300
C         -8.44690       -6.14940        5.49410
C         -9.54460       -6.10590        6.49910
C        -10.56270       -5.01750        6.15040
C         -7.26280       -5.47510        5.50610
Cl        -6.76200       -4.44770        6.78560
C         -6.45830       -5.70900        4.35800
Cl        -4.88650       -5.04710        4.19240
C         -6.08440       -6.13860        1.20310
C         -5.55840       -6.56250       -0.04450
C         -5.45080       -7.93440       -0.33240
C         -4.88540       -8.41250       -1.58300
S         -5.73690       -9.57850       -2.55300
C         -4.47840       -9.63050       -3.73760
C         -4.60360      -10.46890       -4.96140
C         -5.37670       -9.72990       -6.05640
C         -3.46740       -8.78420       -3.39210
C         -3.69190       -8.09340       -2.17090
Cl        -2.52300       -7.03680       -1.48620
Cl        -2.04070       -8.57590       -4.32170
C         -5.90440       -8.81870        0.63820
S         -5.83650      -10.55500        0.53950
C         -5.20910       -5.46570       -0.86820
C         -5.43060       -4.25280       -0.28290
S         -6.13980       -4.40450        1.30820
C         -5.05360       -2.96890       -0.78340
C         -4.14880       -2.71650       -1.77310
C         -3.87280       -1.33920       -1.94800
C         -2.92950       -0.74500       -2.80560
C         -2.09020       -1.54210       -3.68440
S         -1.14200       -2.86650       -3.07290
C         -0.46150       -3.20320       -4.62840
C          0.47740       -4.34180       -4.82070
C         -0.25980       -5.67870       -4.73130
C         -0.95830       -2.33940       -5.55770
Cl        -0.53080       -2.36570       -7.21960
C         -1.87470       -1.39190       -5.02600
Cl        -2.68100       -0.24440       -6.01000
C         -2.79740        0.63510       -2.73600
C         -3.58890        1.44490       -1.88360
C         -4.53280        0.85080       -1.02900
C         -5.32340        1.64460       -0.10160
S         -7.05830        1.52810       -0.07700
C         -7.19770        2.69570        1.19240
C         -8.52880        3.13200        1.69690
C         -9.11630        4.23410        0.81230
C         -5.96440        3.14310        1.56090
C         -4.89890        2.54480        0.83590
Cl        -3.24960        2.87620        1.18580
Cl        -5.69740        4.31230        2.78890
C         -4.64750       -0.53190       -1.08020
S         -5.65950       -1.50090       -0.04790
C         -3.23930        2.81410       -1.97890
C         -2.17940        3.05250       -2.80350
S         -1.60810        1.58520       -3.57440
C         -1.44760        4.26630       -3.00020
S          0.25290        4.13540       -3.37730
C          0.47650        5.85270       -3.21760
C         -0.72200        6.47800       -2.97660
C         -1.80720        5.58400       -2.84060
C         -3.11480        6.20540       -2.47870
C         -2.86370        7.13000       -1.27830
C         -1.78620        8.20470       -1.55510
O         -0.81610        8.25520       -0.52660
C         -1.01800        7.93370       -2.86000
C          1.79400        6.41140       -3.19390
C          2.22420        7.40460       -2.36580
C          3.60710        7.68070       -2.49110
C          4.37370        8.58140       -1.73210
C          3.74490        9.47690       -0.77620
S          2.39900       10.46920       -1.25970
C          2.28100       11.21290        0.29580
C          1.27950       12.27960        0.57090
C          1.82970       13.65780        0.19620
C          3.23850       10.71730        1.12880
Cl         3.44350       11.22130        2.75620
C          4.06450        9.72860        0.52980
Cl         5.26230        8.88880        1.42210
C          5.74350        8.58590       -1.96180
C          6.37010        7.75780       -2.92720
C          5.59610        6.88140       -3.70780
C          6.19760        6.02830       -4.71900
S          7.51950        4.96280       -4.34090
C          7.58880        4.34470       -5.95520
C          8.54850        3.27060       -6.33150
C          7.95460        1.88750       -6.05390
C          6.63390        4.93420       -6.72830
C          5.84550        5.89000       -6.03330
Cl         4.64020        6.82520       -6.81280
Cl         6.39710        4.57930       -8.39010
C          4.22960        6.85180       -3.45640
S          3.08320        5.76380       -4.18440
C          7.77090        7.97180       -2.97700
C          8.20800        8.90560       -2.08660
S          6.89780        9.60620       -1.16000
C          9.54040        9.32520       -1.80240
C          9.92050       10.12810       -0.76950
C         11.31510       10.36090       -0.71260
C         12.02810       11.08520        0.25740
C         11.32850       11.72500        1.35950
S          9.98370       12.79160        1.07470
C          9.69730       13.01680        2.76610
C          8.53310       13.81220        3.24340
C          7.23830       13.00520        3.11240
C         10.60570       12.31020        3.49560
Cl        10.64060       12.27720        5.21100
C         11.53480       11.58180        2.70360
Cl        12.71730       10.55330        3.39590
C         13.40980       11.13070        0.11650
C         14.09630       10.47300       -0.93300
C         13.38290        9.73780       -1.89300
C         14.05790        9.03410       -2.97250
S         15.29840        7.85970       -2.64700
C         15.50700        7.49720       -4.32620
C         16.45850        6.44500       -4.77810
C         15.79220        5.06700       -4.76460
C         14.65510        8.24680       -5.08070
C         13.83410        9.12080       -4.31810
Cl        12.73960       10.22140       -5.04420
Cl        14.57230        8.16690       -6.79250
C         12.00060        9.69910       -1.76020
S         10.90000        8.80400       -2.77280
C         15.49980       10.71280       -0.87150
C         15.84980       11.50940        0.15920
S         14.51240       12.01850        1.12800
H         -7.63000      -18.96010        6.62610
H         -6.63720      -18.55700        4.25340
H         -4.66040      -19.67950       -0.80380
H         -6.29020      -20.08270       -0.22870
H         -5.61890      -17.90720       -2.27060
H         -7.24220      -18.30180       -1.69710
H         -6.32630      -19.48330       -2.63980
H         -8.02580       -9.84030        8.95630
H         -9.58060      -10.32960        9.65930
H         -8.40400      -12.00530       11.08260
H         -6.85710      -11.52550       10.37770
H         -7.77040      -10.38100       11.36710
H         -7.60850      -11.48350        4.62340
H         -7.13550       -9.37710        3.71680
H        -10.04500       -7.07530        6.53200
H         -9.11230       -5.89950        7.48010
H        -11.35370       -4.99450        6.89500
H        -11.00480       -5.21240        5.17620
H        -10.07910       -4.04450        6.12440
H         -3.60280      -10.71340       -5.32220
H         -5.12310      -11.39560       -4.71230
H         -4.86300       -8.81050       -6.32570
H         -5.45890      -10.35500       -6.94130
H         -6.37680       -9.48130       -5.70940
H         -4.81910       -5.57170       -1.86250
H         -3.66350       -3.49430       -2.33180
H          1.25400       -4.30700       -4.05360
H          0.94940       -4.24190       -5.79920
H         -0.72560       -5.78730       -3.75480
H         -1.03270       -5.73670       -5.49400
H          0.43560       -6.50070       -4.87850
H         -8.41240        3.50430        2.71640
H         -9.20740        2.27760        1.71110
H         -9.23750        3.87440       -0.20670
H         -8.45780        5.09900        0.80050
H        -10.08690        4.54050        1.19260
H         -3.72870        3.57750       -1.40640
H         -3.87360        5.46590       -2.23510
H         -3.48210        6.79590       -3.32340
H         -2.51840        6.51060       -0.44620
H         -3.80010        7.60510       -0.98070
H         -2.26630        9.19370       -1.63970
H         -1.25710        8.36620        0.32220
H         -1.64830        8.23180       -3.70250
H         -0.11580        8.54040       -2.87370
H          1.58550        7.86810       -1.63690
H          1.03260       12.26280        1.63420
H          0.37400       12.07950       -0.00400
H          1.08880       14.42530        0.40320
H          2.72590       13.87370        0.77220
H          2.08030       13.68920       -0.86140
H          9.47070        3.39250       -5.76090
H          8.77830        3.36250       -7.39470
H          8.66380        1.11340       -6.33420
H          7.72110        1.78230       -4.99710
H          7.04140        1.74830       -6.62670
H          8.43730        7.44620       -3.63650
H          9.21450       10.52260       -0.06220
H          8.44950       14.72770        2.65460
H          8.69670       14.08090        4.28820
H          7.06540       12.73180        2.07390
H          6.39400       13.59250        3.46350
H          7.29810       12.09530        3.70430
H         17.32850        6.43480       -4.11950
H         16.78740        6.68160       -5.79160
H         16.49540        4.30890       -5.09830
H         15.46030        4.81840       -3.75950
H         14.93040        5.05980       -5.42710
H         16.20160       10.30820       -1.57730
H         16.83280       11.84340        0.42810
