
  xtb     03022212403D
 energy: -452.034615524218 gnorm: 0.000230503428 xtb: 6.4.1 (unknown)
230256  0     0  0            999 V2000
   -1.0726  -18.5135    7.7306 C   0  0  0  0  0  0  0  0  0  0  0  0
   -1.7137  -17.7938    8.6740 C   0  0  0  0  0  0  0  0  0  0  0  0
   -2.1426  -16.5195    8.2010 C   0  0  0  0  0  0  0  0  0  0  0  0
   -2.8092  -15.5072    8.9096 C   0  0  0  0  0  0  0  0  0  0  0  0
   -3.1459  -15.6512   10.3175 C   0  0  0  0  0  0  0  0  0  0  0  0
   -1.9290  -16.0286   11.5015 S   0  0  0  0  0  0  0  0  0  0  0  0
   -3.0638  -15.9631   12.8065 C   0  0  0  0  0  0  0  0  0  0  0  0
   -2.6310  -16.1602   14.2173 C   0  0  0  0  0  0  0  0  0  0  0  0
   -2.1446  -14.8438   14.8283 C   0  0  0  0  0  0  0  0  0  0  0  0
   -4.3062  -15.6593   12.3368 C   0  0  0  0  0  0  0  0  0  0  0  0
   -5.6948  -15.5088   13.3337 Cl  0  0  0  0  0  0  0  0  0  0  0  0
   -4.3576  -15.4837   10.9274 C   0  0  0  0  0  0  0  0  0  0  0  0
   -5.8227  -15.1752   10.0938 Cl  0  0  0  0  0  0  0  0  0  0  0  0
   -3.1041  -14.3411    8.2150 C   0  0  0  0  0  0  0  0  0  0  0  0
   -2.7634  -14.1514    6.8545 C   0  0  0  0  0  0  0  0  0  0  0  0
   -2.1096  -15.1691    6.1398 C   0  0  0  0  0  0  0  0  0  0  0  0
   -1.7453  -14.9782    4.7453 C   0  0  0  0  0  0  0  0  0  0  0  0
   -0.8188  -13.5921    4.2470 S   0  0  0  0  0  0  0  0  0  0  0  0
   -0.8541  -14.0646    2.5821 C   0  0  0  0  0  0  0  0  0  0  0  0
   -0.2440  -13.2013    1.5339 C   0  0  0  0  0  0  0  0  0  0  0  0
   -1.0390  -11.9053    1.3612 C   0  0  0  0  0  0  0  0  0  0  0  0
   -1.5416  -15.2318    2.4386 C   0  0  0  0  0  0  0  0  0  0  0  0
   -2.0424  -15.7564    3.6621 C   0  0  0  0  0  0  0  0  0  0  0  0
   -3.0003  -17.1752    3.7276 Cl  0  0  0  0  0  0  0  0  0  0  0  0
   -1.7995  -16.0159    0.9342 Cl  0  0  0  0  0  0  0  0  0  0  0  0
   -1.8128  -16.3340    6.8362 C   0  0  0  0  0  0  0  0  0  0  0  0
   -0.9552  -17.7101    6.2048 S   0  0  0  0  0  0  0  0  0  0  0  0
   -3.1531  -12.8753    6.3889 C   0  0  0  0  0  0  0  0  0  0  0  0
   -3.7323  -12.0861    7.3415 C   0  0  0  0  0  0  0  0  0  0  0  0
   -3.8563  -12.9181    8.8791 S   0  0  0  0  0  0  0  0  0  0  0  0
   -4.1756  -10.7482    7.1285 C   0  0  0  0  0  0  0  0  0  0  0  0
   -3.9025  -10.0588    5.5521 S   0  0  0  0  0  0  0  0  0  0  0  0
   -4.6204   -8.5488    6.0364 C   0  0  0  0  0  0  0  0  0  0  0  0
   -5.0643   -8.6062    7.3425 C   0  0  0  0  0  0  0  0  0  0  0  0
   -4.7953   -9.8439    7.9667 C   0  0  0  0  0  0  0  0  0  0  0  0
   -5.1556  -10.1143    9.3928 C   0  0  0  0  0  0  0  0  0  0  0  0
   -5.4809   -8.8221   10.1360 C   0  0  0  0  0  0  0  0  0  0  0  0
   -6.4584   -7.9725    9.3209 C   0  0  0  0  0  0  0  0  0  0  0  0
   -6.9828   -6.8968   10.0608 O   0  0  0  0  0  0  0  0  0  0  0  0
   -5.7607   -7.4862    8.0445 C   0  0  0  0  0  0  0  0  0  0  0  0
   -4.6187   -7.4822    5.0926 C   0  0  0  0  0  0  0  0  0  0  0  0
   -4.1588   -7.5636    3.8079 C   0  0  0  0  0  0  0  0  0  0  0  0
   -4.2067   -6.3418    3.1009 C   0  0  0  0  0  0  0  0  0  0  0  0
   -3.7583   -6.0799    1.7930 C   0  0  0  0  0  0  0  0  0  0  0  0
   -3.2990   -7.1516    0.9276 C   0  0  0  0  0  0  0  0  0  0  0  0
   -1.7841   -7.0541    0.0808 S   0  0  0  0  0  0  0  0  0  0  0  0
   -2.0160   -8.5949   -0.6737 C   0  0  0  0  0  0  0  0  0  0  0  0
   -1.0241   -9.1245   -1.6496 C   0  0  0  0  0  0  0  0  0  0  0  0
   -1.0860   -8.3474   -2.9664 C   0  0  0  0  0  0  0  0  0  0  0  0
   -3.2043   -9.1376   -0.2859 C   0  0  0  0  0  0  0  0  0  0  0  0
   -3.7949  -10.6525   -0.8349 Cl  0  0  0  0  0  0  0  0  0  0  0  0
   -3.9321   -8.3263    0.6257 C   0  0  0  0  0  0  0  0  0  0  0  0
   -5.4892   -8.7623    1.2012 Cl  0  0  0  0  0  0  0  0  0  0  0  0
   -3.7771   -4.7557    1.3783 C   0  0  0  0  0  0  0  0  0  0  0  0
   -4.2798   -3.7026    2.1823 C   0  0  0  0  0  0  0  0  0  0  0  0
   -4.7502   -3.9680    3.4806 C   0  0  0  0  0  0  0  0  0  0  0  0
   -5.2223   -2.9019    4.3475 C   0  0  0  0  0  0  0  0  0  0  0  0
   -6.7575   -3.0187    5.1555 S   0  0  0  0  0  0  0  0  0  0  0  0
   -6.5647   -1.4762    5.9155 C   0  0  0  0  0  0  0  0  0  0  0  0
   -7.5883   -0.9559    6.8627 C   0  0  0  0  0  0  0  0  0  0  0  0
   -7.4694   -1.6454    8.2240 C   0  0  0  0  0  0  0  0  0  0  0  0
   -5.3711   -0.9213    5.5624 C   0  0  0  0  0  0  0  0  0  0  0  0
   -4.6065   -1.7245    4.6740 C   0  0  0  0  0  0  0  0  0  0  0  0
   -3.0299   -1.2722    4.1623 Cl  0  0  0  0  0  0  0  0  0  0  0  0
   -4.8216    0.6075    6.1157 Cl  0  0  0  0  0  0  0  0  0  0  0  0
   -4.7054   -5.2883    3.9046 C   0  0  0  0  0  0  0  0  0  0  0  0
   -5.1431   -5.8568    5.4903 S   0  0  0  0  0  0  0  0  0  0  0  0
   -4.2142   -2.4559    1.5175 C   0  0  0  0  0  0  0  0  0  0  0  0
   -3.6369   -2.5256    0.2844 C   0  0  0  0  0  0  0  0  0  0  0  0
   -3.2165   -4.1666   -0.1620 S   0  0  0  0  0  0  0  0  0  0  0  0
   -3.2657   -1.4289   -0.5447 C   0  0  0  0  0  0  0  0  0  0  0  0
   -2.5983   -1.4570   -1.7327 C   0  0  0  0  0  0  0  0  0  0  0  0
   -2.2339   -0.1721   -2.2047 C   0  0  0  0  0  0  0  0  0  0  0  0
   -1.5082    0.1499   -3.3665 C   0  0  0  0  0  0  0  0  0  0  0  0
   -1.1961   -0.8709   -4.3495 C   0  0  0  0  0  0  0  0  0  0  0  0
    0.4137   -1.0976   -4.9652 S   0  0  0  0  0  0  0  0  0  0  0  0
   -0.0749   -2.4129   -5.9762 C   0  0  0  0  0  0  0  0  0  0  0  0
    0.9096   -3.1673   -6.7999 C   0  0  0  0  0  0  0  0  0  0  0  0
    1.4439   -4.3810   -6.0350 C   0  0  0  0  0  0  0  0  0  0  0  0
   -1.4100   -2.6513   -5.8349 C   0  0  0  0  0  0  0  0  0  0  0  0
   -2.2555   -3.8801   -6.6833 Cl  0  0  0  0  0  0  0  0  0  0  0  0
   -2.0504   -1.7781   -4.9171 C   0  0  0  0  0  0  0  0  0  0  0  0
   -3.7423   -1.8227   -4.6316 Cl  0  0  0  0  0  0  0  0  0  0  0  0
   -1.1024    1.4708   -3.5054 C   0  0  0  0  0  0  0  0  0  0  0  0
   -1.4531    2.4828   -2.5779 C   0  0  0  0  0  0  0  0  0  0  0  0
   -2.2817    2.1840   -1.4805 C   0  0  0  0  0  0  0  0  0  0  0  0
   -2.7198    3.2181   -0.5614 C   0  0  0  0  0  0  0  0  0  0  0  0
   -2.5965    3.0004    1.1602 S   0  0  0  0  0  0  0  0  0  0  0  0
   -3.2740    4.5590    1.4883 C   0  0  0  0  0  0  0  0  0  0  0  0
   -3.4769    5.0241    2.8884 C   0  0  0  0  0  0  0  0  0  0  0  0
   -4.2840    4.0137    3.7027 C   0  0  0  0  0  0  0  0  0  0  0  0
   -3.5723    5.1977    0.3218 C   0  0  0  0  0  0  0  0  0  0  0  0
   -3.2623    4.4431   -0.8417 C   0  0  0  0  0  0  0  0  0  0  0  0
   -3.6391    5.0062   -2.4209 Cl  0  0  0  0  0  0  0  0  0  0  0  0
   -4.2539    6.7707    0.2320 Cl  0  0  0  0  0  0  0  0  0  0  0  0
   -2.6219    0.8498   -1.3040 C   0  0  0  0  0  0  0  0  0  0  0  0
   -3.5146    0.2039    0.0417 S   0  0  0  0  0  0  0  0  0  0  0  0
   -0.8370    3.7170   -2.8862 C   0  0  0  0  0  0  0  0  0  0  0  0
   -0.0796    3.6810   -4.0214 C   0  0  0  0  0  0  0  0  0  0  0  0
   -0.0952    2.1028   -4.7769 S   0  0  0  0  0  0  0  0  0  0  0  0
    0.6868    4.7573   -4.5605 C   0  0  0  0  0  0  0  0  0  0  0  0
    0.7494    6.0304   -4.0712 C   0  0  0  0  0  0  0  0  0  0  0  0
    1.6294    6.8707   -4.7910 C   0  0  0  0  0  0  0  0  0  0  0  0
    1.9237    8.2248   -4.5453 C   0  0  0  0  0  0  0  0  0  0  0  0
    1.2449    8.9620   -3.4922 C   0  0  0  0  0  0  0  0  0  0  0  0
   -0.4942    8.9566   -3.3880 S   0  0  0  0  0  0  0  0  0  0  0  0
   -0.4992    9.9925   -2.0028 C   0  0  0  0  0  0  0  0  0  0  0  0
   -1.7743   10.4387   -1.3773 C   0  0  0  0  0  0  0  0  0  0  0  0
   -2.3390   11.6672   -2.0943 C   0  0  0  0  0  0  0  0  0  0  0  0
    0.7771   10.3255   -1.6609 C   0  0  0  0  0  0  0  0  0  0  0  0
    1.1787   11.3456   -0.3414 Cl  0  0  0  0  0  0  0  0  0  0  0  0
    1.7675    9.7393   -2.4948 C   0  0  0  0  0  0  0  0  0  0  0  0
    3.4408    9.9276   -2.1763 Cl  0  0  0  0  0  0  0  0  0  0  0  0
    2.8767    8.8140   -5.3652 C   0  0  0  0  0  0  0  0  0  0  0  0
    3.5345    8.1193   -6.4128 C   0  0  0  0  0  0  0  0  0  0  0  0
    3.1983    6.7828   -6.6892 C   0  0  0  0  0  0  0  0  0  0  0  0
    3.7890    6.0748   -7.8110 C   0  0  0  0  0  0  0  0  0  0  0  0
    4.5011    4.5004   -7.6199 S   0  0  0  0  0  0  0  0  0  0  0  0
    4.9138    4.3980   -9.2965 C   0  0  0  0  0  0  0  0  0  0  0  0
    5.5583    3.1793   -9.8581 C   0  0  0  0  0  0  0  0  0  0  0  0
    4.5074    2.1245  -10.2132 C   0  0  0  0  0  0  0  0  0  0  0  0
    4.5044    5.5187   -9.9559 C   0  0  0  0  0  0  0  0  0  0  0  0
    3.8714    6.4746   -9.1172 C   0  0  0  0  0  0  0  0  0  0  0  0
    3.2077    7.9356   -9.7268 Cl  0  0  0  0  0  0  0  0  0  0  0  0
    4.7278    5.7752  -11.6378 Cl  0  0  0  0  0  0  0  0  0  0  0  0
    2.2677    6.1821   -5.8510 C   0  0  0  0  0  0  0  0  0  0  0  0
    1.7179    4.5337   -5.9555 S   0  0  0  0  0  0  0  0  0  0  0  0
    4.5128    8.9249   -7.0475 C   0  0  0  0  0  0  0  0  0  0  0  0
    4.5743   10.1926   -6.5526 C   0  0  0  0  0  0  0  0  0  0  0  0
    3.4126   10.4633   -5.2702 S   0  0  0  0  0  0  0  0  0  0  0  0
    5.4710   11.2471   -6.8914 C   0  0  0  0  0  0  0  0  0  0  0  0
    5.5589   12.4524   -6.2622 C   0  0  0  0  0  0  0  0  0  0  0  0
    6.5931   13.2789   -6.7611 C   0  0  0  0  0  0  0  0  0  0  0  0
    6.9870   14.5415   -6.2881 C   0  0  0  0  0  0  0  0  0  0  0  0
    6.3297   15.1280   -5.1317 C   0  0  0  0  0  0  0  0  0  0  0  0
    6.1718   14.2180   -3.6557 S   0  0  0  0  0  0  0  0  0  0  0  0
    5.3101   15.4929   -2.8644 C   0  0  0  0  0  0  0  0  0  0  0  0
    4.7851   15.3105   -1.4832 C   0  0  0  0  0  0  0  0  0  0  0  0
    3.6856   14.2468   -1.4493 C   0  0  0  0  0  0  0  0  0  0  0  0
    5.1709   16.5574   -3.7036 C   0  0  0  0  0  0  0  0  0  0  0  0
    4.3678   18.0147   -3.2824 Cl  0  0  0  0  0  0  0  0  0  0  0  0
    5.7523   16.3579   -4.9863 C   0  0  0  0  0  0  0  0  0  0  0  0
    5.6380   17.5248   -6.2356 Cl  0  0  0  0  0  0  0  0  0  0  0  0
    8.0454   15.1549   -6.9467 C   0  0  0  0  0  0  0  0  0  0  0  0
    8.7167   14.5580   -8.0420 C   0  0  0  0  0  0  0  0  0  0  0  0
    8.3244   13.2933   -8.5096 C   0  0  0  0  0  0  0  0  0  0  0  0
    9.0118   12.6386   -9.6119 C   0  0  0  0  0  0  0  0  0  0  0  0
   10.7313   12.3781   -9.5775 S   0  0  0  0  0  0  0  0  0  0  0  0
   10.7206   11.5704  -11.1079 C   0  0  0  0  0  0  0  0  0  0  0  0
   11.9662   10.9984  -11.6890 C   0  0  0  0  0  0  0  0  0  0  0  0
   12.2162    9.5845  -11.1586 C   0  0  0  0  0  0  0  0  0  0  0  0
    9.4515   11.5086  -11.6002 C   0  0  0  0  0  0  0  0  0  0  0  0
    8.4806   12.1143  -10.7572 C   0  0  0  0  0  0  0  0  0  0  0  0
    6.8287   12.2326  -11.1976 Cl  0  0  0  0  0  0  0  0  0  0  0  0
    9.0426   10.7827  -13.1001 Cl  0  0  0  0  0  0  0  0  0  0  0  0
    7.2680   12.6766   -7.8505 C   0  0  0  0  0  0  0  0  0  0  0  0
    6.6463   11.0818   -8.1772 S   0  0  0  0  0  0  0  0  0  0  0  0
    9.7677   15.3900   -8.5266 C   0  0  0  0  0  0  0  0  0  0  0  0
    9.9008   16.5307   -7.8193 C   0  0  0  0  0  0  0  0  0  0  0  0
    8.7601   16.6855   -6.5305 S   0  0  0  0  0  0  0  0  0  0  0  0
   -0.6514  -19.4952    7.8255 H   0  0  0  0  0  0  0  0  0  0  0  0
   -1.8840  -18.1428    9.6757 H   0  0  0  0  0  0  0  0  0  0  0  0
   -3.4768  -16.5397   14.7936 H   0  0  0  0  0  0  0  0  0  0  0  0
   -1.8254  -16.8956   14.2501 H   0  0  0  0  0  0  0  0  0  0  0  0
   -2.9420  -14.1053   14.8144 H   0  0  0  0  0  0  0  0  0  0  0  0
   -1.3002  -14.4551   14.2639 H   0  0  0  0  0  0  0  0  0  0  0  0
   -1.8339  -15.0025   15.8573 H   0  0  0  0  0  0  0  0  0  0  0  0
   -0.2272  -13.7553    0.5942 H   0  0  0  0  0  0  0  0  0  0  0  0
    0.7837  -12.9587    1.8138 H   0  0  0  0  0  0  0  0  0  0  0  0
   -2.0606  -12.1257    1.0635 H   0  0  0  0  0  0  0  0  0  0  0  0
   -1.0621  -11.3486    2.2954 H   0  0  0  0  0  0  0  0  0  0  0  0
   -0.5817  -11.2832    0.5967 H   0  0  0  0  0  0  0  0  0  0  0  0
   -3.0129  -12.5410    5.3774 H   0  0  0  0  0  0  0  0  0  0  0  0
   -4.3310  -10.6276    9.8927 H   0  0  0  0  0  0  0  0  0  0  0  0
   -6.0180  -10.7874    9.4224 H   0  0  0  0  0  0  0  0  0  0  0  0
   -5.9210   -9.0538   11.1068 H   0  0  0  0  0  0  0  0  0  0  0  0
   -4.5639   -8.2500   10.3040 H   0  0  0  0  0  0  0  0  0  0  0  0
   -7.3317   -8.5779    9.0548 H   0  0  0  0  0  0  0  0  0  0  0  0
   -6.2545   -6.3330   10.3475 H   0  0  0  0  0  0  0  0  0  0  0  0
   -5.0311   -6.7106    8.3081 H   0  0  0  0  0  0  0  0  0  0  0  0
   -6.4954   -7.0210    7.3832 H   0  0  0  0  0  0  0  0  0  0  0  0
   -3.7680   -8.4755    3.3948 H   0  0  0  0  0  0  0  0  0  0  0  0
   -0.0189   -9.0406   -1.2303 H   0  0  0  0  0  0  0  0  0  0  0  0
   -1.2423  -10.1781   -1.8315 H   0  0  0  0  0  0  0  0  0  0  0  0
   -0.8751   -7.2950   -2.7917 H   0  0  0  0  0  0  0  0  0  0  0  0
   -0.3543   -8.7403   -3.6672 H   0  0  0  0  0  0  0  0  0  0  0  0
   -2.0748   -8.4343   -3.4095 H   0  0  0  0  0  0  0  0  0  0  0  0
   -8.5852   -1.1326    6.4547 H   0  0  0  0  0  0  0  0  0  0  0  0
   -7.4430    0.1194    6.9790 H   0  0  0  0  0  0  0  0  0  0  0  0
   -6.4868   -1.4654    8.6530 H   0  0  0  0  0  0  0  0  0  0  0  0
   -7.6116   -2.7182    8.1167 H   0  0  0  0  0  0  0  0  0  0  0  0
   -8.2229   -1.2596    8.9050 H   0  0  0  0  0  0  0  0  0  0  0  0
   -4.5686   -1.5313    1.9346 H   0  0  0  0  0  0  0  0  0  0  0  0
   -2.3348   -2.3751   -2.2259 H   0  0  0  0  0  0  0  0  0  0  0  0
    0.4186   -3.5033   -7.7155 H   0  0  0  0  0  0  0  0  0  0  0  0
    1.7372   -2.5086   -7.0662 H   0  0  0  0  0  0  0  0  0  0  0  0
    0.6287   -5.0529   -5.7790 H   0  0  0  0  0  0  0  0  0  0  0  0
    1.9344   -4.0634   -5.1182 H   0  0  0  0  0  0  0  0  0  0  0  0
    2.1615   -4.9208   -6.6468 H   0  0  0  0  0  0  0  0  0  0  0  0
   -2.5042    5.1737    3.3653 H   0  0  0  0  0  0  0  0  0  0  0  0
   -3.9933    5.9852    2.8611 H   0  0  0  0  0  0  0  0  0  0  0  0
   -5.2579    3.8505    3.2478 H   0  0  0  0  0  0  0  0  0  0  0  0
   -4.4303    4.3802    4.7152 H   0  0  0  0  0  0  0  0  0  0  0  0
   -3.7608    3.0614    3.7490 H   0  0  0  0  0  0  0  0  0  0  0  0
   -0.9246    4.5889   -2.2669 H   0  0  0  0  0  0  0  0  0  0  0  0
    0.1902    6.3569   -3.2153 H   0  0  0  0  0  0  0  0  0  0  0  0
   -2.5021    9.6265   -1.4210 H   0  0  0  0  0  0  0  0  0  0  0  0
   -1.5837   10.6817   -0.3302 H   0  0  0  0  0  0  0  0  0  0  0  0
   -3.2673   11.9789   -1.6235 H   0  0  0  0  0  0  0  0  0  0  0  0
   -2.5370   11.4371   -3.1385 H   0  0  0  0  0  0  0  0  0  0  0  0
   -1.6302   12.4901   -2.0475 H   0  0  0  0  0  0  0  0  0  0  0  0
    6.1154    3.4579  -10.7544 H   0  0  0  0  0  0  0  0  0  0  0  0
    6.2540    2.7667   -9.1256 H   0  0  0  0  0  0  0  0  0  0  0  0
    3.8182    2.5157  -10.9571 H   0  0  0  0  0  0  0  0  0  0  0  0
    4.9898    1.2384  -10.6168 H   0  0  0  0  0  0  0  0  0  0  0  0
    3.9414    1.8439   -9.3281 H   0  0  0  0  0  0  0  0  0  0  0  0
    5.1708    8.5737   -7.8214 H   0  0  0  0  0  0  0  0  0  0  0  0
    4.9001   12.7291   -5.4597 H   0  0  0  0  0  0  0  0  0  0  0  0
    5.5989   15.0065   -0.8207 H   0  0  0  0  0  0  0  0  0  0  0  0
    4.3911   16.2657   -1.1327 H   0  0  0  0  0  0  0  0  0  0  0  0
    2.8619   14.5316   -2.0996 H   0  0  0  0  0  0  0  0  0  0  0  0
    4.0752   13.2880   -1.7837 H   0  0  0  0  0  0  0  0  0  0  0  0
    3.3057   14.1337   -0.4375 H   0  0  0  0  0  0  0  0  0  0  0  0
   11.8638   10.9681  -12.7754 H   0  0  0  0  0  0  0  0  0  0  0  0
   12.8130   11.6376  -11.4336 H   0  0  0  0  0  0  0  0  0  0  0  0
   13.1245    9.1774  -11.5944 H   0  0  0  0  0  0  0  0  0  0  0  0
   12.3241    9.6011  -10.0766 H   0  0  0  0  0  0  0  0  0  0  0  0
   11.3839    8.9341  -11.4150 H   0  0  0  0  0  0  0  0  0  0  0  0
   10.3866   15.1350   -9.3668 H   0  0  0  0  0  0  0  0  0  0  0  0
   10.6089   17.3212   -7.9737 H   0  0  0  0  0  0  0  0  0  0  0  0
  1  2  2  0  0  0  0
  2  3  1  0  0  0  0
  3  4  2  0  0  0  0
  4  5  1  0  0  0  0
  5  6  1  0  0  0  0
  6  7  1  0  0  0  0
  7  8  1  0  0  0  0
  8  9  1  0  0  0  0
  7 10  2  0  0  0  0
 10 11  1  0  0  0  0
 10 12  1  0  0  0  0
 12 13  1  0  0  0  0
  4 14  1  0  0  0  0
 14 15  2  0  0  0  0
 15 16  1  0  0  0  0
 16 17  1  0  0  0  0
 17 18  1  0  0  0  0
 18 19  1  0  0  0  0
 19 20  1  0  0  0  0
 20 21  1  0  0  0  0
 19 22  2  0  0  0  0
 22 23  1  0  0  0  0
 23 24  1  0  0  0  0
 22 25  1  0  0  0  0
 16 26  2  0  0  0  0
 26 27  1  0  0  0  0
 15 28  1  0  0  0  0
 28 29  2  0  0  0  0
 29 30  1  0  0  0  0
 29 31  1  0  0  0  0
 31 32  1  0  0  0  0
 32 33  1  0  0  0  0
 33 34  2  0  0  0  0
 34 35  1  0  0  0  0
 35 36  1  0  0  0  0
 36 37  1  0  0  0  0
 37 38  1  0  0  0  0
 38 39  1  0  0  0  0
 38 40  1  0  0  0  0
 33 41  1  0  0  0  0
 41 42  2  0  0  0  0
 42 43  1  0  0  0  0
 43 44  2  0  0  0  0
 44 45  1  0  0  0  0
 45 46  1  0  0  0  0
 46 47  1  0  0  0  0
 47 48  1  0  0  0  0
 48 49  1  0  0  0  0
 47 50  2  0  0  0  0
 50 51  1  0  0  0  0
 50 52  1  0  0  0  0
 52 53  1  0  0  0  0
 44 54  1  0  0  0  0
 54 55  2  0  0  0  0
 55 56  1  0  0  0  0
 56 57  1  0  0  0  0
 57 58  1  0  0  0  0
 58 59  1  0  0  0  0
 59 60  1  0  0  0  0
 60 61  1  0  0  0  0
 59 62  2  0  0  0  0
 62 63  1  0  0  0  0
 63 64  1  0  0  0  0
 62 65  1  0  0  0  0
 56 66  2  0  0  0  0
 66 67  1  0  0  0  0
 55 68  1  0  0  0  0
 68 69  2  0  0  0  0
 69 70  1  0  0  0  0
 69 71  1  0  0  0  0
 71 72  2  0  0  0  0
 72 73  1  0  0  0  0
 73 74  2  0  0  0  0
 74 75  1  0  0  0  0
 75 76  1  0  0  0  0
 76 77  1  0  0  0  0
 77 78  1  0  0  0  0
 78 79  1  0  0  0  0
 77 80  2  0  0  0  0
 80 81  1  0  0  0  0
 80 82  1  0  0  0  0
 82 83  1  0  0  0  0
 74 84  1  0  0  0  0
 84 85  2  0  0  0  0
 85 86  1  0  0  0  0
 86 87  1  0  0  0  0
 87 88  1  0  0  0  0
 88 89  1  0  0  0  0
 89 90  1  0  0  0  0
 90 91  1  0  0  0  0
 89 92  2  0  0  0  0
 92 93  1  0  0  0  0
 93 94  1  0  0  0  0
 92 95  1  0  0  0  0
 86 96  2  0  0  0  0
 96 97  1  0  0  0  0
 85 98  1  0  0  0  0
 98 99  2  0  0  0  0
 99100  1  0  0  0  0
 99101  1  0  0  0  0
101102  2  0  0  0  0
102103  1  0  0  0  0
103104  2  0  0  0  0
104105  1  0  0  0  0
105106  1  0  0  0  0
106107  1  0  0  0  0
107108  1  0  0  0  0
108109  1  0  0  0  0
107110  2  0  0  0  0
110111  1  0  0  0  0
110112  1  0  0  0  0
112113  1  0  0  0  0
104114  1  0  0  0  0
114115  2  0  0  0  0
115116  1  0  0  0  0
116117  1  0  0  0  0
117118  1  0  0  0  0
118119  1  0  0  0  0
119120  1  0  0  0  0
120121  1  0  0  0  0
119122  2  0  0  0  0
122123  1  0  0  0  0
123124  1  0  0  0  0
122125  1  0  0  0  0
116126  2  0  0  0  0
126127  1  0  0  0  0
115128  1  0  0  0  0
128129  2  0  0  0  0
129130  1  0  0  0  0
129131  1  0  0  0  0
131132  2  0  0  0  0
132133  1  0  0  0  0
133134  2  0  0  0  0
134135  1  0  0  0  0
135136  1  0  0  0  0
136137  1  0  0  0  0
137138  1  0  0  0  0
138139  1  0  0  0  0
137140  2  0  0  0  0
140141  1  0  0  0  0
140142  1  0  0  0  0
142143  1  0  0  0  0
134144  1  0  0  0  0
144145  2  0  0  0  0
145146  1  0  0  0  0
146147  1  0  0  0  0
147148  1  0  0  0  0
148149  1  0  0  0  0
149150  1  0  0  0  0
150151  1  0  0  0  0
149152  2  0  0  0  0
152153  1  0  0  0  0
153154  1  0  0  0  0
152155  1  0  0  0  0
146156  2  0  0  0  0
156157  1  0  0  0  0
145158  1  0  0  0  0
158159  2  0  0  0  0
159160  1  0  0  0  0
 27  1  1  0  0  0  0
 35 31  2  0  0  0  0
 67 41  1  0  0  0  0
 97 71  1  0  0  0  0
127101  1  0  0  0  0
157131  1  0  0  0  0
 26  3  1  0  0  0  0
 40 34  1  0  0  0  0
 66 43  1  0  0  0  0
 96 73  1  0  0  0  0
126103  1  0  0  0  0
156133  1  0  0  0  0
 12  5  2  0  0  0  0
 30 14  1  0  0  0  0
 52 45  2  0  0  0  0
 70 54  1  0  0  0  0
 82 75  2  0  0  0  0
100 84  1  0  0  0  0
112105  2  0  0  0  0
130114  1  0  0  0  0
142135  2  0  0  0  0
160144  1  0  0  0  0
 23 17  2  0  0  0  0
 63 57  2  0  0  0  0
 93 87  2  0  0  0  0
123117  2  0  0  0  0
153147  2  0  0  0  0
  1161  1  0  0  0  0
  2162  1  0  0  0  0
  8163  1  0  0  0  0
  8164  1  0  0  0  0
  9165  1  0  0  0  0
  9166  1  0  0  0  0
  9167  1  0  0  0  0
 20168  1  0  0  0  0
 20169  1  0  0  0  0
 21170  1  0  0  0  0
 21171  1  0  0  0  0
 21172  1  0  0  0  0
 28173  1  0  0  0  0
 36174  1  0  0  0  0
 36175  1  0  0  0  0
 37176  1  0  0  0  0
 37177  1  0  0  0  0
 38178  1  0  0  0  0
 39179  1  0  0  0  0
 40180  1  0  0  0  0
 40181  1  0  0  0  0
 42182  1  0  0  0  0
 48183  1  0  0  0  0
 48184  1  0  0  0  0
 49185  1  0  0  0  0
 49186  1  0  0  0  0
 49187  1  0  0  0  0
 60188  1  0  0  0  0
 60189  1  0  0  0  0
 61190  1  0  0  0  0
 61191  1  0  0  0  0
 61192  1  0  0  0  0
 68193  1  0  0  0  0
 72194  1  0  0  0  0
 78195  1  0  0  0  0
 78196  1  0  0  0  0
 79197  1  0  0  0  0
 79198  1  0  0  0  0
 79199  1  0  0  0  0
 90200  1  0  0  0  0
 90201  1  0  0  0  0
 91202  1  0  0  0  0
 91203  1  0  0  0  0
 91204  1  0  0  0  0
 98205  1  0  0  0  0
102206  1  0  0  0  0
108207  1  0  0  0  0
108208  1  0  0  0  0
109209  1  0  0  0  0
109210  1  0  0  0  0
109211  1  0  0  0  0
120212  1  0  0  0  0
120213  1  0  0  0  0
121214  1  0  0  0  0
121215  1  0  0  0  0
121216  1  0  0  0  0
128217  1  0  0  0  0
132218  1  0  0  0  0
138219  1  0  0  0  0
138220  1  0  0  0  0
139221  1  0  0  0  0
139222  1  0  0  0  0
139223  1  0  0  0  0
150224  1  0  0  0  0
150225  1  0  0  0  0
151226  1  0  0  0  0
151227  1  0  0  0  0
151228  1  0  0  0  0
158229  1  0  0  0  0
159230  1  0  0  0  0
M  END
