
  xtb     03012221223D
 energy: -467.035241807529 gnorm: 0.000186215295 xtb: 6.4.1 (unknown)
243270  0     0  0            999 V2000
   -2.7139   -5.1032   14.2438 C   0  0  0  0  0  0  0  0  0  0  0  0
   -2.9887   -3.8258   13.9092 C   0  0  0  0  0  0  0  0  0  0  0  0
   -3.3502   -3.6782   12.5383 C   0  0  0  0  0  0  0  0  0  0  0  0
   -3.6381   -2.4949   11.8393 C   0  0  0  0  0  0  0  0  0  0  0  0
   -3.6375   -1.1981   12.4987 C   0  0  0  0  0  0  0  0  0  0  0  0
   -4.6252   -0.8874   13.8957 S   0  0  0  0  0  0  0  0  0  0  0  0
   -4.0989    0.7577   14.0016 C   0  0  0  0  0  0  0  0  0  0  0  0
   -4.5603    1.6509   15.0998 C   0  0  0  0  0  0  0  0  0  0  0  0
   -3.6614    1.5108   16.3309 C   0  0  0  0  0  0  0  0  0  0  0  0
   -3.2019    1.0305   13.0129 C   0  0  0  0  0  0  0  0  0  0  0  0
   -2.4497    2.5579   12.8004 Cl  0  0  0  0  0  0  0  0  0  0  0  0
   -2.9417   -0.0722   12.1556 C   0  0  0  0  0  0  0  0  0  0  0  0
   -1.7980    0.0072   10.8815 Cl  0  0  0  0  0  0  0  0  0  0  0  0
   -3.9108   -2.6138   10.4822 C   0  0  0  0  0  0  0  0  0  0  0  0
   -3.8898   -3.8576    9.8055 C   0  0  0  0  0  0  0  0  0  0  0  0
   -3.5978   -5.0423   10.5016 C   0  0  0  0  0  0  0  0  0  0  0  0
   -3.5697   -6.3171    9.8035 C   0  0  0  0  0  0  0  0  0  0  0  0
   -2.6181   -6.5205    8.3606 S   0  0  0  0  0  0  0  0  0  0  0  0
   -3.1498   -8.1527    8.1404 C   0  0  0  0  0  0  0  0  0  0  0  0
   -2.7282   -8.9348    6.9458 C   0  0  0  0  0  0  0  0  0  0  0  0
   -3.3709   -8.3782    5.6729 C   0  0  0  0  0  0  0  0  0  0  0  0
   -4.0035   -8.5081    9.1410 C   0  0  0  0  0  0  0  0  0  0  0  0
   -4.2396   -7.4740   10.0883 C   0  0  0  0  0  0  0  0  0  0  0  0
   -5.3386   -7.6582   11.3895 Cl  0  0  0  0  0  0  0  0  0  0  0  0
   -4.7463  -10.0500    9.2680 Cl  0  0  0  0  0  0  0  0  0  0  0  0
   -3.3349   -4.9219   11.8607 C   0  0  0  0  0  0  0  0  0  0  0  0
   -2.8758   -6.2148   12.9306 S   0  0  0  0  0  0  0  0  0  0  0  0
   -4.2126   -3.7147    8.4356 C   0  0  0  0  0  0  0  0  0  0  0  0
   -4.4672   -2.4290    8.0637 C   0  0  0  0  0  0  0  0  0  0  0  0
   -4.3477   -1.3138    9.4066 S   0  0  0  0  0  0  0  0  0  0  0  0
   -4.7283   -1.9823    6.7356 C   0  0  0  0  0  0  0  0  0  0  0  0
   -5.0529   -0.7364    6.2895 C   0  0  0  0  0  0  0  0  0  0  0  0
   -5.1467   -0.6500    4.8771 C   0  0  0  0  0  0  0  0  0  0  0  0
   -5.3913    0.4851    4.0834 C   0  0  0  0  0  0  0  0  0  0  0  0
   -5.6287    1.7914    4.6746 C   0  0  0  0  0  0  0  0  0  0  0  0
   -4.5359    2.4661    5.8486 S   0  0  0  0  0  0  0  0  0  0  0  0
   -5.4522    3.9273    5.9816 C   0  0  0  0  0  0  0  0  0  0  0  0
   -5.0031    5.0417    6.8605 C   0  0  0  0  0  0  0  0  0  0  0  0
   -3.9861    5.9307    6.1407 C   0  0  0  0  0  0  0  0  0  0  0  0
   -6.5341    3.8831    5.1541 C   0  0  0  0  0  0  0  0  0  0  0  0
   -7.6817    5.1506    5.0126 Cl  0  0  0  0  0  0  0  0  0  0  0  0
   -6.6394    2.6751    4.4135 C   0  0  0  0  0  0  0  0  0  0  0  0
   -7.9605    2.3512    3.3716 Cl  0  0  0  0  0  0  0  0  0  0  0  0
   -5.3356    0.3148    2.7048 C   0  0  0  0  0  0  0  0  0  0  0  0
   -5.0673   -0.9345    2.0907 C   0  0  0  0  0  0  0  0  0  0  0  0
   -4.8704   -2.0790    2.8810 C   0  0  0  0  0  0  0  0  0  0  0  0
   -4.5457   -3.3757    2.3091 C   0  0  0  0  0  0  0  0  0  0  0  0
   -3.2043   -3.5716    1.2162 S   0  0  0  0  0  0  0  0  0  0  0  0
   -3.4098   -5.2869    1.1447 C   0  0  0  0  0  0  0  0  0  0  0  0
   -2.4678   -6.1564    0.3883 C   0  0  0  0  0  0  0  0  0  0  0  0
   -1.3905   -6.7158    1.3207 C   0  0  0  0  0  0  0  0  0  0  0  0
   -4.4621   -5.6702    1.9214 C   0  0  0  0  0  0  0  0  0  0  0  0
   -5.1103   -4.5921    2.5797 C   0  0  0  0  0  0  0  0  0  0  0  0
   -6.5080   -4.8180    3.5455 Cl  0  0  0  0  0  0  0  0  0  0  0  0
   -4.9673   -7.2996    2.1036 Cl  0  0  0  0  0  0  0  0  0  0  0  0
   -4.9089   -1.9023    4.2577 C   0  0  0  0  0  0  0  0  0  0  0  0
   -4.5593   -3.1356    5.4289 S   0  0  0  0  0  0  0  0  0  0  0  0
   -4.9765   -0.8261    0.6843 C   0  0  0  0  0  0  0  0  0  0  0  0
   -5.1229    0.4519    0.2258 C   0  0  0  0  0  0  0  0  0  0  0  0
   -5.4482    1.5830    1.5188 S   0  0  0  0  0  0  0  0  0  0  0  0
   -4.9257    0.9008   -1.1149 C   0  0  0  0  0  0  0  0  0  0  0  0
   -4.4443    0.1545   -2.1513 C   0  0  0  0  0  0  0  0  0  0  0  0
   -4.1716    0.9140   -3.3121 C   0  0  0  0  0  0  0  0  0  0  0  0
   -3.5555    0.4751   -4.4949 C   0  0  0  0  0  0  0  0  0  0  0  0
   -3.0546   -0.8848   -4.6222 C   0  0  0  0  0  0  0  0  0  0  0  0
   -3.5265   -1.9293   -5.9248 S   0  0  0  0  0  0  0  0  0  0  0  0
   -2.5019   -3.2103   -5.3680 C   0  0  0  0  0  0  0  0  0  0  0  0
   -2.4641   -4.5207   -6.0711 C   0  0  0  0  0  0  0  0  0  0  0  0
   -3.7576   -5.3066   -5.8515 C   0  0  0  0  0  0  0  0  0  0  0  0
   -1.8399   -2.8297   -4.2397 C   0  0  0  0  0  0  0  0  0  0  0  0
   -0.7196   -3.8179   -3.3957 Cl  0  0  0  0  0  0  0  0  0  0  0  0
   -2.1460   -1.5092   -3.8152 C   0  0  0  0  0  0  0  0  0  0  0  0
   -1.3874   -0.7687   -2.4640 Cl  0  0  0  0  0  0  0  0  0  0  0  0
   -3.2991    1.4296   -5.4641 C   0  0  0  0  0  0  0  0  0  0  0  0
   -3.6274    2.7975   -5.3055 C   0  0  0  0  0  0  0  0  0  0  0  0
   -4.2745    3.2324   -4.1343 C   0  0  0  0  0  0  0  0  0  0  0  0
   -4.5809    4.6380   -3.9415 C   0  0  0  0  0  0  0  0  0  0  0  0
   -4.0728    5.4959   -2.5175 S   0  0  0  0  0  0  0  0  0  0  0  0
   -4.7477    6.9862   -3.0817 C   0  0  0  0  0  0  0  0  0  0  0  0
   -4.7107    8.2162   -2.2436 C   0  0  0  0  0  0  0  0  0  0  0  0
   -5.8856    8.2392   -1.2629 C   0  0  0  0  0  0  0  0  0  0  0  0
   -5.3363    6.8111   -4.2987 C   0  0  0  0  0  0  0  0  0  0  0  0
   -5.2350    5.4840   -4.7942 C   0  0  0  0  0  0  0  0  0  0  0  0
   -5.9346    4.9947   -6.2842 Cl  0  0  0  0  0  0  0  0  0  0  0  0
   -6.1243    8.0629   -5.1705 Cl  0  0  0  0  0  0  0  0  0  0  0  0
   -4.5051    2.2800   -3.1495 C   0  0  0  0  0  0  0  0  0  0  0  0
   -5.1438    2.5816   -1.5572 S   0  0  0  0  0  0  0  0  0  0  0  0
   -2.9971    3.6004   -6.2898 C   0  0  0  0  0  0  0  0  0  0  0  0
   -2.1896    2.9034   -7.1392 C   0  0  0  0  0  0  0  0  0  0  0  0
   -2.3046    1.1721   -6.8640 S   0  0  0  0  0  0  0  0  0  0  0  0
   -1.0958    3.4026   -7.9414 C   0  0  0  0  0  0  0  0  0  0  0  0
   -0.6873    4.7381   -7.8061 C   0  0  0  0  0  0  0  0  0  0  0  0
    0.5569    5.1043   -8.2515 C   0  0  0  0  0  0  0  0  0  0  0  0
    1.4091    4.1650   -8.8553 C   0  0  0  0  0  0  0  0  0  0  0  0
    0.9583    2.8804   -9.1180 C   0  0  0  0  0  0  0  0  0  0  0  0
   -0.2890    2.5116   -8.6575 C   0  0  0  0  0  0  0  0  0  0  0  0
    2.7316    4.7484   -8.9581 C   0  0  0  0  0  0  0  0  0  0  0  0
    2.6826    6.0544   -8.4459 C   0  0  0  0  0  0  0  0  0  0  0  0
    1.2653    6.4296   -8.0771 C   0  0  0  0  0  0  0  0  0  0  0  0
    1.1703    6.9396   -6.6394 C   0  0  0  0  0  0  0  0  0  0  0  0
    0.7088    7.4710   -9.0557 C   0  0  0  0  0  0  0  0  0  0  0  0
    3.8384    6.7740   -8.2486 C   0  0  0  0  0  0  0  0  0  0  0  0
    5.0646    6.1612   -8.5067 C   0  0  0  0  0  0  0  0  0  0  0  0
    5.1023    4.8894   -9.0777 C   0  0  0  0  0  0  0  0  0  0  0  0
    3.9422    4.1810   -9.3240 C   0  0  0  0  0  0  0  0  0  0  0  0
    6.3144    6.7847   -8.0531 C   0  0  0  0  0  0  0  0  0  0  0  0
    7.0776    6.2083   -7.1208 C   0  0  0  0  0  0  0  0  0  0  0  0
    6.7085    4.9847   -6.4381 C   0  0  0  0  0  0  0  0  0  0  0  0
    5.4842    4.5872   -5.9981 C   0  0  0  0  0  0  0  0  0  0  0  0
    5.4711    3.2851   -5.4328 C   0  0  0  0  0  0  0  0  0  0  0  0
    4.3755    2.5790   -4.9041 C   0  0  0  0  0  0  0  0  0  0  0  0
    3.0966    3.2141   -4.6281 C   0  0  0  0  0  0  0  0  0  0  0  0
    3.0615    4.6513   -3.6371 S   0  0  0  0  0  0  0  0  0  0  0  0
    1.3461    4.5643   -3.4201 C   0  0  0  0  0  0  0  0  0  0  0  0
    0.6044    5.5033   -2.5299 C   0  0  0  0  0  0  0  0  0  0  0  0
   -0.2757    6.4853   -3.3046 C   0  0  0  0  0  0  0  0  0  0  0  0
    0.8416    3.5105   -4.1213 C   0  0  0  0  0  0  0  0  0  0  0  0
   -0.8135    3.0633   -4.0852 Cl  0  0  0  0  0  0  0  0  0  0  0  0
    1.8222    2.7530   -4.8172 C   0  0  0  0  0  0  0  0  0  0  0  0
    1.3980    1.4418   -5.8335 Cl  0  0  0  0  0  0  0  0  0  0  0  0
    4.6106    1.2663   -4.4992 C   0  0  0  0  0  0  0  0  0  0  0  0
    5.9011    0.6841   -4.5220 C   0  0  0  0  0  0  0  0  0  0  0  0
    7.0105    1.4209   -4.9661 C   0  0  0  0  0  0  0  0  0  0  0  0
    8.3521    0.8731   -4.8622 C   0  0  0  0  0  0  0  0  0  0  0  0
    9.4409    0.8439   -6.2165 S   0  0  0  0  0  0  0  0  0  0  0  0
   10.6942    0.0888   -5.2939 C   0  0  0  0  0  0  0  0  0  0  0  0
   11.9900   -0.3020   -5.9140 C   0  0  0  0  0  0  0  0  0  0  0  0
   11.9442   -1.7511   -6.4054 C   0  0  0  0  0  0  0  0  0  0  0  0
   10.2787   -0.1238   -4.0129 C   0  0  0  0  0  0  0  0  0  0  0  0
    8.9543    0.3218   -3.7634 C   0  0  0  0  0  0  0  0  0  0  0  0
    8.2419    0.2384   -2.2039 Cl  0  0  0  0  0  0  0  0  0  0  0  0
   11.2511   -0.8501   -2.8011 Cl  0  0  0  0  0  0  0  0  0  0  0  0
    6.7567    2.6923   -5.4611 C   0  0  0  0  0  0  0  0  0  0  0  0
    7.9410    3.7798   -6.1223 S   0  0  0  0  0  0  0  0  0  0  0  0
    5.8942   -0.6421   -4.0253 C   0  0  0  0  0  0  0  0  0  0  0  0
    4.6699   -1.0581   -3.6025 C   0  0  0  0  0  0  0  0  0  0  0  0
    3.4395    0.1621   -3.8292 S   0  0  0  0  0  0  0  0  0  0  0  0
    4.4316   -2.3309   -2.9824 C   0  0  0  0  0  0  0  0  0  0  0  0
    5.3094   -2.9245   -2.1285 C   0  0  0  0  0  0  0  0  0  0  0  0
    4.9051   -4.2135   -1.7043 C   0  0  0  0  0  0  0  0  0  0  0  0
    5.5713   -5.0751   -0.8190 C   0  0  0  0  0  0  0  0  0  0  0  0
    6.8807   -4.7305   -0.2925 C   0  0  0  0  0  0  0  0  0  0  0  0
    7.2138   -4.7751    1.4132 S   0  0  0  0  0  0  0  0  0  0  0  0
    8.8455   -4.2466    1.1884 C   0  0  0  0  0  0  0  0  0  0  0  0
    9.7449   -3.9993    2.3487 C   0  0  0  0  0  0  0  0  0  0  0  0
    9.5778   -2.5705    2.8725 C   0  0  0  0  0  0  0  0  0  0  0  0
    9.1029   -4.0496   -0.1357 C   0  0  0  0  0  0  0  0  0  0  0  0
   10.6170   -3.5259   -0.7484 Cl  0  0  0  0  0  0  0  0  0  0  0  0
    7.9936   -4.3255   -0.9783 C   0  0  0  0  0  0  0  0  0  0  0  0
    8.0994   -4.2298   -2.6885 Cl  0  0  0  0  0  0  0  0  0  0  0  0
    4.9218   -6.2578   -0.4878 C   0  0  0  0  0  0  0  0  0  0  0  0
    3.6835   -6.6370   -1.0569 C   0  0  0  0  0  0  0  0  0  0  0  0
    3.0506   -5.8010   -1.9902 C   0  0  0  0  0  0  0  0  0  0  0  0
    1.8408   -6.2278   -2.6788 C   0  0  0  0  0  0  0  0  0  0  0  0
    0.3911   -6.6619   -1.8311 S   0  0  0  0  0  0  0  0  0  0  0  0
   -0.4353   -7.0872   -3.2930 C   0  0  0  0  0  0  0  0  0  0  0  0
   -1.8387   -7.5824   -3.2666 C   0  0  0  0  0  0  0  0  0  0  0  0
   -1.9534   -8.9092   -2.5162 C   0  0  0  0  0  0  0  0  0  0  0  0
    0.3858   -6.9054   -4.3642 C   0  0  0  0  0  0  0  0  0  0  0  0
    1.6716   -6.4057   -4.0223 C   0  0  0  0  0  0  0  0  0  0  0  0
    2.8978   -6.1284   -5.1878 Cl  0  0  0  0  0  0  0  0  0  0  0  0
   -0.0491   -7.2625   -5.9873 Cl  0  0  0  0  0  0  0  0  0  0  0  0
    3.6623   -4.5861   -2.2715 C   0  0  0  0  0  0  0  0  0  0  0  0
    3.0296   -3.3268   -3.2968 S   0  0  0  0  0  0  0  0  0  0  0  0
    3.2696   -7.9229   -0.5987 C   0  0  0  0  0  0  0  0  0  0  0  0
    4.1409   -8.4748    0.2694 C   0  0  0  0  0  0  0  0  0  0  0  0
    5.5256   -7.4877    0.5867 S   0  0  0  0  0  0  0  0  0  0  0  0
   -2.4187   -5.4832   15.2022 H   0  0  0  0  0  0  0  0  0  0  0  0
   -2.9343   -3.0043   14.5994 H   0  0  0  0  0  0  0  0  0  0  0  0
   -5.5870    1.3970   15.3677 H   0  0  0  0  0  0  0  0  0  0  0  0
   -4.5344    2.6831   14.7455 H   0  0  0  0  0  0  0  0  0  0  0  0
   -4.0046    2.1732   17.1209 H   0  0  0  0  0  0  0  0  0  0  0  0
   -3.6822    0.4879   16.6993 H   0  0  0  0  0  0  0  0  0  0  0  0
   -2.6360    1.7699   16.0797 H   0  0  0  0  0  0  0  0  0  0  0  0
   -3.0260   -9.9747    7.0885 H   0  0  0  0  0  0  0  0  0  0  0  0
   -1.6411   -8.8941    6.8469 H   0  0  0  0  0  0  0  0  0  0  0  0
   -3.0616   -8.9636    4.8111 H   0  0  0  0  0  0  0  0  0  0  0  0
   -3.0716   -7.3438    5.5184 H   0  0  0  0  0  0  0  0  0  0  0  0
   -4.4547   -8.4174    5.7474 H   0  0  0  0  0  0  0  0  0  0  0  0
   -4.2584   -4.5314    7.7389 H   0  0  0  0  0  0  0  0  0  0  0  0
   -5.2050    0.0927    6.9563 H   0  0  0  0  0  0  0  0  0  0  0  0
   -4.5502    4.6303    7.7642 H   0  0  0  0  0  0  0  0  0  0  0  0
   -5.8736    5.6366    7.1434 H   0  0  0  0  0  0  0  0  0  0  0  0
   -3.1111    5.3501    5.8582 H   0  0  0  0  0  0  0  0  0  0  0  0
   -3.6721    6.7413    6.7928 H   0  0  0  0  0  0  0  0  0  0  0  0
   -4.4265    6.3556    5.2423 H   0  0  0  0  0  0  0  0  0  0  0  0
   -3.0280   -6.9826   -0.0544 H   0  0  0  0  0  0  0  0  0  0  0  0
   -1.9945   -5.5797   -0.4072 H   0  0  0  0  0  0  0  0  0  0  0  0
   -1.8470   -7.3059    2.1111 H   0  0  0  0  0  0  0  0  0  0  0  0
   -0.7026   -7.3435    0.7615 H   0  0  0  0  0  0  0  0  0  0  0  0
   -0.8262   -5.9043    1.7725 H   0  0  0  0  0  0  0  0  0  0  0  0
   -4.7869   -1.6641    0.0408 H   0  0  0  0  0  0  0  0  0  0  0  0
   -4.2549   -0.9000   -2.0832 H   0  0  0  0  0  0  0  0  0  0  0  0
   -1.6159   -5.0908   -5.6920 H   0  0  0  0  0  0  0  0  0  0  0  0
   -2.3221   -4.3558   -7.1412 H   0  0  0  0  0  0  0  0  0  0  0  0
   -3.9201   -5.4792   -4.7904 H   0  0  0  0  0  0  0  0  0  0  0  0
   -3.7000   -6.2664   -6.3576 H   0  0  0  0  0  0  0  0  0  0  0  0
   -4.6061   -4.7536   -6.2475 H   0  0  0  0  0  0  0  0  0  0  0  0
   -4.7619    9.0889   -2.8973 H   0  0  0  0  0  0  0  0  0  0  0  0
   -3.7726    8.2486   -1.6868 H   0  0  0  0  0  0  0  0  0  0  0  0
   -5.8445    7.3740   -0.6056 H   0  0  0  0  0  0  0  0  0  0  0  0
   -5.8500    9.1412   -0.6579 H   0  0  0  0  0  0  0  0  0  0  0  0
   -6.8280    8.2197   -1.8042 H   0  0  0  0  0  0  0  0  0  0  0  0
   -3.0758    4.6716   -6.2914 H   0  0  0  0  0  0  0  0  0  0  0  0
   -1.3151    5.4468   -7.2900 H   0  0  0  0  0  0  0  0  0  0  0  0
    1.5894    2.1630   -9.6202 H   0  0  0  0  0  0  0  0  0  0  0  0
   -0.6306    1.4952   -8.7940 H   0  0  0  0  0  0  0  0  0  0  0  0
    0.1371    7.1675   -6.3899 H   0  0  0  0  0  0  0  0  0  0  0  0
    1.7615    7.8440   -6.5159 H   0  0  0  0  0  0  0  0  0  0  0  0
    1.5387    6.1828   -5.9496 H   0  0  0  0  0  0  0  0  0  0  0  0
    0.7835    7.1051  -10.0775 H   0  0  0  0  0  0  0  0  0  0  0  0
   -0.3366    7.6739   -8.8348 H   0  0  0  0  0  0  0  0  0  0  0  0
    1.2709    8.3988   -8.9766 H   0  0  0  0  0  0  0  0  0  0  0  0
    3.8171    7.7675   -7.8241 H   0  0  0  0  0  0  0  0  0  0  0  0
    6.0624    4.4457   -9.2976 H   0  0  0  0  0  0  0  0  0  0  0  0
    3.9844    3.1872   -9.7432 H   0  0  0  0  0  0  0  0  0  0  0  0
    6.6015    7.7317   -8.4889 H   0  0  0  0  0  0  0  0  0  0  0  0
    8.0332    6.6353   -6.8477 H   0  0  0  0  0  0  0  0  0  0  0  0
    4.6039    5.1977   -6.0773 H   0  0  0  0  0  0  0  0  0  0  0  0
    1.3197    6.0540   -1.9179 H   0  0  0  0  0  0  0  0  0  0  0  0
   -0.0326    4.9089   -1.8693 H   0  0  0  0  0  0  0  0  0  0  0  0
   -0.8670    7.0746   -2.6089 H   0  0  0  0  0  0  0  0  0  0  0  0
   -0.9526    5.9464   -3.9618 H   0  0  0  0  0  0  0  0  0  0  0  0
    0.3363    7.1572   -3.8995 H   0  0  0  0  0  0  0  0  0  0  0  0
   12.2047    0.3628   -6.7519 H   0  0  0  0  0  0  0  0  0  0  0  0
   12.7821   -0.1966   -5.1697 H   0  0  0  0  0  0  0  0  0  0  0  0
   11.7398   -2.4232   -5.5759 H   0  0  0  0  0  0  0  0  0  0  0  0
   12.8974   -2.0254   -6.8492 H   0  0  0  0  0  0  0  0  0  0  0  0
   11.1628   -1.8724   -7.1517 H   0  0  0  0  0  0  0  0  0  0  0  0
    6.7587   -1.2793   -4.0141 H   0  0  0  0  0  0  0  0  0  0  0  0
    6.1997   -2.4332   -1.7836 H   0  0  0  0  0  0  0  0  0  0  0  0
    9.5126   -4.7087    3.1445 H   0  0  0  0  0  0  0  0  0  0  0  0
   10.7780   -4.1529    2.0312 H   0  0  0  0  0  0  0  0  0  0  0  0
    9.8153   -1.8530    2.0912 H   0  0  0  0  0  0  0  0  0  0  0  0
   10.2428   -2.4012    3.7150 H   0  0  0  0  0  0  0  0  0  0  0  0
    8.5531   -2.4051    3.1966 H   0  0  0  0  0  0  0  0  0  0  0  0
   -2.1780   -7.7062   -4.2959 H   0  0  0  0  0  0  0  0  0  0  0  0
   -2.4729   -6.8366   -2.7810 H   0  0  0  0  0  0  0  0  0  0  0  0
   -2.9875   -9.2430   -2.5025 H   0  0  0  0  0  0  0  0  0  0  0  0
   -1.3498   -9.6716   -3.0024 H   0  0  0  0  0  0  0  0  0  0  0  0
   -1.6088   -8.7950   -1.4912 H   0  0  0  0  0  0  0  0  0  0  0  0
    2.3596   -8.3997   -0.9134 H   0  0  0  0  0  0  0  0  0  0  0  0
    4.0673   -9.4250    0.7611 H   0  0  0  0  0  0  0  0  0  0  0  0
  1  2  2  0  0  0  0
  2  3  1  0  0  0  0
  3  4  2  0  0  0  0
  4  5  1  0  0  0  0
  5  6  1  0  0  0  0
  6  7  1  0  0  0  0
  7  8  1  0  0  0  0
  8  9  1  0  0  0  0
  7 10  2  0  0  0  0
 10 11  1  0  0  0  0
 10 12  1  0  0  0  0
 12 13  1  0  0  0  0
  4 14  1  0  0  0  0
 14 15  2  0  0  0  0
 15 16  1  0  0  0  0
 16 17  1  0  0  0  0
 17 18  1  0  0  0  0
 18 19  1  0  0  0  0
 19 20  1  0  0  0  0
 20 21  1  0  0  0  0
 19 22  2  0  0  0  0
 22 23  1  0  0  0  0
 23 24  1  0  0  0  0
 22 25  1  0  0  0  0
 16 26  2  0  0  0  0
 26 27  1  0  0  0  0
 15 28  1  0  0  0  0
 28 29  2  0  0  0  0
 29 30  1  0  0  0  0
 29 31  1  0  0  0  0
 31 32  2  0  0  0  0
 32 33  1  0  0  0  0
 33 34  2  0  0  0  0
 34 35  1  0  0  0  0
 35 36  1  0  0  0  0
 36 37  1  0  0  0  0
 37 38  1  0  0  0  0
 38 39  1  0  0  0  0
 37 40  2  0  0  0  0
 40 41  1  0  0  0  0
 40 42  1  0  0  0  0
 42 43  1  0  0  0  0
 34 44  1  0  0  0  0
 44 45  2  0  0  0  0
 45 46  1  0  0  0  0
 46 47  1  0  0  0  0
 47 48  1  0  0  0  0
 48 49  1  0  0  0  0
 49 50  1  0  0  0  0
 50 51  1  0  0  0  0
 49 52  2  0  0  0  0
 52 53  1  0  0  0  0
 53 54  1  0  0  0  0
 52 55  1  0  0  0  0
 46 56  2  0  0  0  0
 56 57  1  0  0  0  0
 45 58  1  0  0  0  0
 58 59  2  0  0  0  0
 59 60  1  0  0  0  0
 59 61  1  0  0  0  0
 61 62  2  0  0  0  0
 62 63  1  0  0  0  0
 63 64  2  0  0  0  0
 64 65  1  0  0  0  0
 65 66  1  0  0  0  0
 66 67  1  0  0  0  0
 67 68  1  0  0  0  0
 68 69  1  0  0  0  0
 67 70  2  0  0  0  0
 70 71  1  0  0  0  0
 70 72  1  0  0  0  0
 72 73  1  0  0  0  0
 64 74  1  0  0  0  0
 74 75  2  0  0  0  0
 75 76  1  0  0  0  0
 76 77  1  0  0  0  0
 77 78  1  0  0  0  0
 78 79  1  0  0  0  0
 79 80  1  0  0  0  0
 80 81  1  0  0  0  0
 79 82  2  0  0  0  0
 82 83  1  0  0  0  0
 83 84  1  0  0  0  0
 82 85  1  0  0  0  0
 76 86  2  0  0  0  0
 86 87  1  0  0  0  0
 75 88  1  0  0  0  0
 88 89  2  0  0  0  0
 89 90  1  0  0  0  0
 89 91  1  0  0  0  0
 91 92  2  0  0  0  0
 92 93  1  0  0  0  0
 93 94  2  0  0  0  0
 94 95  1  0  0  0  0
 95 96  2  0  0  0  0
 94 97  1  0  0  0  0
 97 98  2  0  0  0  0
 98 99  1  0  0  0  0
 99100  1  0  0  0  0
 99101  1  0  0  0  0
 98102  1  0  0  0  0
102103  2  0  0  0  0
103104  1  0  0  0  0
104105  2  0  0  0  0
103106  1  0  0  0  0
106107  2  0  0  0  0
107108  1  0  0  0  0
108109  2  0  0  0  0
109110  1  0  0  0  0
110111  2  0  0  0  0
111112  1  0  0  0  0
112113  1  0  0  0  0
113114  1  0  0  0  0
114115  1  0  0  0  0
115116  1  0  0  0  0
114117  2  0  0  0  0
117118  1  0  0  0  0
117119  1  0  0  0  0
119120  1  0  0  0  0
111121  1  0  0  0  0
121122  2  0  0  0  0
122123  1  0  0  0  0
123124  1  0  0  0  0
124125  1  0  0  0  0
125126  1  0  0  0  0
126127  1  0  0  0  0
127128  1  0  0  0  0
126129  2  0  0  0  0
129130  1  0  0  0  0
130131  1  0  0  0  0
129132  1  0  0  0  0
123133  2  0  0  0  0
133134  1  0  0  0  0
122135  1  0  0  0  0
135136  2  0  0  0  0
136137  1  0  0  0  0
136138  1  0  0  0  0
138139  2  0  0  0  0
139140  1  0  0  0  0
140141  2  0  0  0  0
141142  1  0  0  0  0
142143  1  0  0  0  0
143144  1  0  0  0  0
144145  1  0  0  0  0
145146  1  0  0  0  0
144147  2  0  0  0  0
147148  1  0  0  0  0
147149  1  0  0  0  0
149150  1  0  0  0  0
141151  1  0  0  0  0
151152  2  0  0  0  0
152153  1  0  0  0  0
153154  1  0  0  0  0
154155  1  0  0  0  0
155156  1  0  0  0  0
156157  1  0  0  0  0
157158  1  0  0  0  0
156159  2  0  0  0  0
159160  1  0  0  0  0
160161  1  0  0  0  0
159162  1  0  0  0  0
153163  2  0  0  0  0
163164  1  0  0  0  0
152165  1  0  0  0  0
165166  2  0  0  0  0
166167  1  0  0  0  0
 27  1  1  0  0  0  0
 57 31  1  0  0  0  0
 87 61  1  0  0  0  0
 96 91  1  0  0  0  0
105 97  1  0  0  0  0
134108  1  0  0  0  0
164138  1  0  0  0  0
 26  3  1  0  0  0  0
 56 33  1  0  0  0  0
 86 63  1  0  0  0  0
 99 93  1  0  0  0  0
133110  1  0  0  0  0
163140  1  0  0  0  0
 12  5  2  0  0  0  0
 30 14  1  0  0  0  0
 42 35  2  0  0  0  0
 60 44  1  0  0  0  0
 72 65  2  0  0  0  0
 90 74  1  0  0  0  0
119112  2  0  0  0  0
137121  1  0  0  0  0
149142  2  0  0  0  0
167151  1  0  0  0  0
 23 17  2  0  0  0  0
 53 47  2  0  0  0  0
 83 77  2  0  0  0  0
130124  2  0  0  0  0
160154  2  0  0  0  0
  1168  1  0  0  0  0
  2169  1  0  0  0  0
  8170  1  0  0  0  0
  8171  1  0  0  0  0
  9172  1  0  0  0  0
  9173  1  0  0  0  0
  9174  1  0  0  0  0
 20175  1  0  0  0  0
 20176  1  0  0  0  0
 21177  1  0  0  0  0
 21178  1  0  0  0  0
 21179  1  0  0  0  0
 28180  1  0  0  0  0
 32181  1  0  0  0  0
 38182  1  0  0  0  0
 38183  1  0  0  0  0
 39184  1  0  0  0  0
 39185  1  0  0  0  0
 39186  1  0  0  0  0
 50187  1  0  0  0  0
 50188  1  0  0  0  0
 51189  1  0  0  0  0
 51190  1  0  0  0  0
 51191  1  0  0  0  0
 58192  1  0  0  0  0
 62193  1  0  0  0  0
 68194  1  0  0  0  0
 68195  1  0  0  0  0
 69196  1  0  0  0  0
 69197  1  0  0  0  0
 69198  1  0  0  0  0
 80199  1  0  0  0  0
 80200  1  0  0  0  0
 81201  1  0  0  0  0
 81202  1  0  0  0  0
 81203  1  0  0  0  0
 88204  1  0  0  0  0
 92205  1  0  0  0  0
 95206  1  0  0  0  0
 96207  1  0  0  0  0
100208  1  0  0  0  0
100209  1  0  0  0  0
100210  1  0  0  0  0
101211  1  0  0  0  0
101212  1  0  0  0  0
101213  1  0  0  0  0
102214  1  0  0  0  0
104215  1  0  0  0  0
105216  1  0  0  0  0
106217  1  0  0  0  0
107218  1  0  0  0  0
109219  1  0  0  0  0
115220  1  0  0  0  0
115221  1  0  0  0  0
116222  1  0  0  0  0
116223  1  0  0  0  0
116224  1  0  0  0  0
127225  1  0  0  0  0
127226  1  0  0  0  0
128227  1  0  0  0  0
128228  1  0  0  0  0
128229  1  0  0  0  0
135230  1  0  0  0  0
139231  1  0  0  0  0
145232  1  0  0  0  0
145233  1  0  0  0  0
146234  1  0  0  0  0
146235  1  0  0  0  0
146236  1  0  0  0  0
157237  1  0  0  0  0
157238  1  0  0  0  0
158239  1  0  0  0  0
158240  1  0  0  0  0
158241  1  0  0  0  0
165242  1  0  0  0  0
166243  1  0  0  0  0
M  END
