266

C         -2.03890        1.77770       10.21500
C         -3.11390        2.43250        9.73190
C         -3.33490        2.18990        8.34320
C         -4.33290        2.73370        7.51880
C         -5.24620        3.77860        7.99560
C         -4.75020        4.91060        8.64260
C         -5.59710        5.92370        9.03460
C         -6.97100        5.84780        8.80920
S         -7.96420        7.19560        9.36720
C         -9.28730        7.30550        8.09520
C         -9.78520        8.73570        8.02810
C         -7.45620        4.69720        8.19460
F         -8.78230        4.52880        7.99240
C         -6.61640        3.68460        7.77740
C         -4.37390        2.27420        6.21020
C         -3.42770        1.35860        5.69150
C         -2.36850        0.89210        6.48600
C         -1.27280        0.12410        5.88350
C         -0.67390        0.60420        4.72060
C          0.37180       -0.06500        4.11900
C          0.85480       -1.25080        4.65680
S          2.14630       -2.22770        3.95980
C          2.57960       -1.37020        2.40750
C          3.57120       -0.24320        2.62340
C          0.26600       -1.70880        5.83740
C         -0.77610       -1.04760        6.44970
F          0.73610       -2.83930        6.40000
C         -2.37770        1.28860        7.81550
S         -1.21690        0.82170        9.03050
C         -3.69030        1.04000        4.33640
C         -4.74520        1.72060        3.80730
S         -5.50110        2.78570        4.97450
C         -5.15200        1.66890        2.43930
C         -5.83820        2.58630        1.70240
C         -5.83740        2.30820        0.30770
C         -6.25510        3.13350       -0.75260
C         -6.87280        4.44630       -0.53170
C         -8.04460        4.78390       -1.20280
C         -8.65150        6.01020       -1.01610
C         -8.10460        6.94980       -0.14960
S         -8.75770        8.55240        0.17500
C        -10.43400        8.51170       -0.54700
C        -11.38770        7.64670        0.25520
C         -6.91650        6.60670        0.49900
F         -6.34060        7.50220        1.32730
C         -6.30310        5.38720        0.32400
C         -5.99150        2.67790       -2.03760
C         -5.40980        1.41490       -2.30350
C         -4.99550        0.58430       -1.25160
C         -4.26240       -0.66720       -1.49030
C         -4.64900       -1.85690       -0.88150
C         -3.96260       -3.03580       -1.10690
C         -2.85620       -3.06220       -1.94730
S         -1.89050       -4.48250       -2.33610
C         -2.79560       -5.87750       -1.58990
C         -4.04870       -6.23720       -2.36550
C         -2.45840       -1.85450       -2.52390
C         -3.13680       -0.67680       -2.31380
F         -1.36410       -1.83820       -3.31550
C         -5.20170        1.07230        0.02630
S         -4.56680        0.33250        1.46700
C         -5.13220        1.23650       -3.67640
C         -5.35070        2.35270       -4.43370
S         -6.11310        3.62810       -3.50550
C         -4.64780        2.54070       -5.67080
C         -4.08660        1.52580       -6.38840
C         -2.87620        1.88850       -7.03050
C         -1.90960        0.97650       -7.48170
C         -2.21460       -0.46430       -7.47330
C         -1.58560       -1.28390       -6.54090
C         -1.92340       -2.61620       -6.41400
C         -2.89530       -3.18100       -7.23110
S         -3.44780       -4.85120       -7.13990
C         -2.20300       -5.67630       -6.08870
C         -0.87000       -5.84110       -6.79310
C         -3.51130       -2.34930       -8.16870
F         -4.46570       -2.86180       -8.97320
C         -3.19680       -1.01300       -8.29180
C         -0.62400        1.46910       -7.61490
C         -0.29080        2.82690       -7.39330
C         -1.29090        3.77000       -7.09110
C         -0.93530        5.18550       -6.93700
C         -1.31690        5.94460       -5.83550
C         -0.96790        7.27720       -5.72800
C         -0.23100        7.90580       -6.72470
S          0.28720        9.58860       -6.71300
C         -0.70830       10.35720       -5.38930
C         -2.17130       10.48750       -5.76810
C          0.16130        7.12800       -7.81680
C         -0.17090        5.79820       -7.93110
F          0.89180        7.69760       -8.79640
C         -2.55840        3.25730       -6.84670
S         -3.85470        4.07820       -5.99970
C          1.10860        2.98850       -7.17060
C          1.80610        1.82600       -7.23260
S          0.80400        0.47680       -7.76900
C          2.98710        1.46460       -6.47910
C          2.96910        1.55680       -5.12130
C          3.96490        0.77700       -4.48420
C          4.07250        0.50360       -3.11440
C          3.08510        0.97090       -2.12990
C          3.46570        1.61230       -0.95390
C          2.52430        1.96390       -0.00800
C          1.17450        1.66660       -0.18590
S          0.05920        2.07740        1.12520
C         -1.51400        2.48600        0.27040
C         -2.31630        3.43260        1.13980
C          0.81160        1.01070       -1.35760
F         -0.47460        0.66330       -1.58090
C          1.73820        0.67980       -2.32430
C          5.05260       -0.39920       -2.74610
C          5.93000       -1.02770       -3.66020
C          5.83580       -0.72900       -5.03260
C          6.74580       -1.35290       -5.99990
C          6.27910       -1.98550       -7.15030
C          7.16160       -2.54030       -8.05210
C          8.53880       -2.49360       -7.84540
S          9.56910       -3.27560       -9.05230
C         10.99170       -2.13540       -9.22520
C         10.55540       -0.74340       -9.63520
C          8.98920       -1.88580       -6.67730
C          8.11860       -1.31450       -5.77240
F         10.30820       -1.83450       -6.38460
C          4.81670        0.13540       -5.41560
S          4.32520        0.50080       -7.05690
C          6.67160       -2.06760       -3.03740
C          6.36710       -2.26980       -1.71980
S          5.21350       -1.06650       -1.15040
C          6.71420       -3.41490       -0.93410
N          6.24000       -3.67980        0.32930
C          5.91660       -2.69840        1.33640
C          7.12900       -1.82480        1.65260
C          6.51090       -4.98580        0.63550
C          7.21150       -5.54920       -0.41820
C          7.33130       -4.57150       -1.40290
C          5.88840       -5.65090        1.75120
C          4.58940       -5.51290        2.13910
C          4.20610       -6.38990        3.18850
C          2.93640       -6.55060        3.76680
C          1.74400       -5.86310        3.25210
C          1.45440       -5.87500        1.88760
C          0.29970       -5.29330        1.40360
C         -0.60890       -4.68930        2.26430
S         -2.13850       -4.05740        1.61460
C         -2.10700       -2.31650        2.16830
C         -1.26400       -1.46520        1.24230
C         -0.31560       -4.68960        3.62330
F         -1.17940       -4.13280        4.49680
C          0.84340       -5.25030        4.11910
C          2.84670       -7.46140        4.81300
C          3.94230       -8.23640        5.26310
C          5.19680       -8.11070        4.64950
C          6.33810       -8.94510        5.04520
C          6.22390      -10.33090        5.10460
C          7.29800      -11.12260        5.46230
C          8.52400      -10.55390        5.78820
S          9.97320      -11.44460        6.24930
C          9.34700      -13.09240        6.72620
C          8.52680      -13.04900        8.00140
C          8.62710       -9.16380        5.71300
C          7.56780       -8.36450        5.34780
F          9.80270       -8.57820        6.01550
C          5.29880       -7.17420        3.63180
S          6.73450       -6.86130        2.68560
C          3.57480       -9.08970        6.34650
C          2.27060       -8.99190        6.67180
S          1.39760       -7.85630        5.70170
H         -1.66080        1.78340       11.21870
H         -3.75200        3.05680       10.33060
H         -3.68750        5.00930        8.80380
H         -5.20770        6.80580        9.51860
H         -8.84730        6.99780        7.14800
H        -10.08750        6.62040        8.37140
H        -10.57130        8.81550        7.28030
H        -10.18590        9.04650        8.99020
H         -8.97520        9.40950        7.75790
H         -7.04980        2.81390        7.31060
H         -1.01000        1.53450        4.28820
H          0.80380        0.35830        3.22810
H          3.01110       -2.15990        1.79270
H          1.66570       -1.02470        1.92930
H          3.88530        0.15780        1.66160
H          3.12650        0.55820        3.20860
H          4.44530       -0.60970        3.15570
H         -1.20370       -1.46260        7.34810
H         -3.11250        0.33010        3.77150
H         -6.29160        3.45600        2.14250
H         -8.49920        4.06850       -1.87120
H         -9.55570        6.22810       -1.56000
H        -10.35810        8.19840       -1.58740
H        -10.74560        9.55600       -0.52250
H        -11.45680        8.01330        1.27660
H        -12.37910        7.67600       -0.19290
H        -11.05000        6.61300        0.28510
H         -5.37420        5.19220        0.83670
H         -5.51220       -1.86850       -0.23350
H         -4.29230       -3.93130       -0.60790
H         -2.07540       -6.69570       -1.61920
H         -2.99620       -5.63020       -0.54840
H         -3.79630       -6.52640       -3.38330
H         -4.73890       -5.39780       -2.41160
H         -4.55080       -7.07270       -1.88200
H         -2.76400        0.22910       -2.76350
H         -4.68190        0.34510       -4.07020
H         -4.44390        0.51260       -6.35850
H         -0.84690       -0.87040       -5.87270
H         -1.43420       -3.19850       -5.65140
H         -2.11220       -5.12810       -5.15160
H         -2.65270       -6.64860       -5.88470
H         -0.99510       -6.41930       -7.70580
H         -0.17210       -6.36280       -6.14120
H         -0.44350       -4.87520       -7.05410
H         -3.71380       -0.41190       -9.02370
H         -1.87350        5.48730       -5.03290
H         -1.27200        7.82100       -4.84860
H         -0.25080       11.33900       -5.26750
H         -0.56340        9.79220       -4.46940
H         -2.27200       11.08070       -6.67390
H         -2.71800       10.98020       -4.96630
H         -2.61920        9.51200       -5.94560
H          0.14880        5.24810       -8.80250
H          1.54940        3.92030       -6.86390
H          2.21600        2.10780       -4.58700
H          4.50550        1.85040       -0.78820
H          2.82070        2.47550        0.89440
H         -1.25170        2.95280       -0.67770
H         -2.05890        1.55990        0.08900
H         -1.76100        4.34920        1.32670
H         -2.55180        2.97010        2.09630
H         -3.24820        3.68180        0.63590
H          1.40270        0.15080       -3.20290
H          5.21830       -2.05460       -7.33310
H          6.79650       -3.02660       -8.94310
H         11.59290       -2.60490      -10.00390
H         11.55750       -2.12960       -8.29630
H          9.97280       -0.78040      -10.55340
H          9.94710       -0.28230       -8.85910
H         11.43130       -0.11940       -9.80100
H          8.52260       -0.83460       -4.89400
H          7.35110       -2.69910       -3.57880
H          5.08360       -2.07740        1.00540
H          5.61130       -3.23380        2.23730
H          7.96470       -2.44520        1.96850
H          7.43190       -1.25280        0.77970
H          6.88680       -1.13160        2.45310
H          7.54930       -6.56490       -0.47210
H          7.78370       -4.69580       -2.36580
H          3.90650       -4.82750        1.67000
H          2.12670       -6.37030        1.20320
H          0.07970       -5.30930        0.34690
H         -1.73830       -2.29050        3.19150
H         -3.14920       -2.00010        2.15430
H         -1.19000       -0.45440        1.63840
H         -0.26190       -1.88160        1.15030
H         -1.70840       -1.42220        0.25040
H          1.03310       -5.19100        5.17860
H          5.28710      -10.79880        4.84110
H          7.17330      -12.19340        5.47490
H         10.25630      -13.67600        6.87010
H          8.79420      -13.51550        5.88840
H          7.64300      -12.42680        7.87630
H          9.12110      -12.63960        8.81480
H          8.20940      -14.05400        8.27280
H          7.70170       -7.29480        5.32370
H          4.27220       -9.72970        6.85560
H          1.74220       -9.51670        7.44370
