232

C          2.84300       -7.38910       10.34740
C          2.24190       -6.20070       10.14080
C          1.77790       -6.03660        8.80090
C          1.15640       -4.91700        8.22900
C          0.82230       -3.72750        9.02260
C          1.20710       -2.45320        8.60840
C          0.88770       -1.34620        9.36340
C          0.16180       -1.45650       10.54960
S         -0.21810        0.04460       11.39590
C         -0.31510       -0.44290       13.16550
C         -0.08440        0.78640       14.02210
C         -0.24030       -2.73200       10.93410
F         -0.98780       -2.92390       12.04670
C          0.09250       -3.85230       10.19980
C          0.87220       -4.98750        6.87340
C          1.16670       -6.12250        6.07630
C          1.79330       -7.24060        6.64810
C          2.16040       -8.41210        5.84350
C          1.80350       -9.69770        6.24600
C          2.17190      -10.79500        5.49830
C          2.90680      -10.65890        4.32210
S          3.27860      -12.14000        3.42930
C          4.98150      -11.87780        2.80970
C          5.95890      -11.60490        3.93520
C          3.23720       -9.36800        3.92100
C          2.88620       -8.26040        4.66600
F          3.92490       -9.15050        2.77760
C          2.07450       -7.16900        8.00540
S          2.89430       -8.39550        8.93950
C          0.75710       -5.94200        4.73010
C          0.20990       -4.71840        4.48960
S          0.10760       -3.73310        5.93640
C         -0.16660       -4.15980        3.23360
C         -0.56330       -2.87980        2.99360
C         -0.77520       -2.59890        1.62170
C         -1.20140       -1.39240        1.05010
C         -1.34440       -0.15660        1.82620
C         -0.32650        0.25510        2.68710
C         -0.40650        1.46430        3.34260
C         -1.49110        2.31960        3.15880
S         -1.45070        3.88100        3.98820
C         -3.17890        4.13590        4.53980
C         -3.66070        3.00940        5.43140
C         -2.49220        1.90310        2.28750
F         -3.55490        2.69170        2.02730
C         -2.43990        0.68170        1.64800
C         -1.40960       -1.40360       -0.32150
C         -1.09880       -2.50260       -1.15870
C         -0.64340       -3.70260       -0.58380
C         -0.31600       -4.86750       -1.41310
C         -0.80470       -6.13780       -1.11030
C         -0.51480       -7.21490       -1.91950
C          0.27590       -7.07840       -3.05940
S          0.60330       -8.54110       -3.99690
C          0.59390       -7.98030       -5.74070
C         -0.71450       -7.31710       -6.12040
C          0.78240       -5.81190       -3.33220
C          0.49040       -4.72250       -2.53760
F          1.58140       -5.59850       -4.40300
C         -0.54100       -3.73050        0.80150
S         -0.04870       -5.10430        1.76160
C         -1.36580       -2.20900       -2.52610
C         -1.88110       -0.96500       -2.72750
S         -2.03840       -0.06950       -1.23610
C         -2.27290       -0.28750       -3.93110
N         -1.59150       -0.39960       -5.11590
C         -2.10540        0.47370       -6.01560
C         -3.16250        1.14370       -5.43140
C         -3.27840        0.64880       -4.10430
C         -4.30330        1.05480       -3.10300
C         -3.95150        2.24060       -5.94210
C         -3.49170        3.20170       -6.75650
C         -4.18610        4.43060       -7.03260
N         -5.53440        4.61420       -6.87240
C         -5.83500        5.93220       -6.98830
C         -4.66540        6.63420       -7.18690
C         -3.61960        5.67670       -7.25220
C         -2.18020        5.93140       -7.54390
C         -4.50840        8.08720       -7.20080
C         -3.70730        8.73670       -6.34960
C         -2.99610        8.03150       -5.29830
C         -3.51290        7.11970       -4.43860
C         -2.53510        6.38660       -3.71190
C         -2.73280        5.31870       -2.82380
C         -4.07000        4.85630       -2.43310
C         -5.03910        4.58150       -3.39610
C         -6.28850        4.13600       -3.02460
C         -6.62180        3.93780       -1.68590
S         -8.24350        3.31240       -1.35380
C         -8.75460        4.14450        0.19340
C         -8.73350        5.65390        0.06130
C         -5.63420        4.18560       -0.73720
F         -5.87720        3.99620        0.57560
C         -4.38110        4.64350       -1.09420
C         -1.59590        4.64440       -2.40020
C         -0.29280        5.00300       -2.81150
C         -0.08320        6.15140       -3.59260
C          1.27500        6.58940       -3.93220
C          1.64150        6.91590       -5.23440
C          2.92030        7.34600       -5.53030
C          3.87860        7.47660       -4.53180
S          5.53970        8.01030       -4.78230
C          5.47150        8.91520       -6.36740
C          4.64870       10.18520       -6.26810
C          3.50420        7.12600       -3.23350
C          2.23620        6.68850       -2.92630
F          4.41170        7.22220       -2.24080
C         -1.22130        6.80390       -4.04330
S         -1.25220        8.15390       -5.15120
C          0.65080        3.98750       -2.49470
C          0.11010        2.92110       -1.85240
S         -1.59120        3.14280       -1.50750
C          0.76320        1.63580       -1.72450
C          1.13310        0.91990       -2.81480
C          1.81980       -0.28200       -2.50330
C          2.33310       -1.20930       -3.41410
C          2.20150       -1.01030       -4.86660
C          2.76420        0.11050       -5.47180
C          2.67850        0.28890       -6.83820
C          2.00780       -0.62900       -7.63630
S          1.97470       -0.40560       -9.40250
C          0.18290       -0.11770       -9.65860
C         -0.20200        1.30010       -9.28090
C          1.44140       -1.73930       -7.02060
F          0.76750       -2.64890       -7.75270
C          1.53450       -1.94170       -5.65630
C          3.02900       -2.28240       -2.88310
C          3.20890       -2.46880       -1.48990
C          2.62770       -1.57370       -0.56930
C          2.77630       -1.79720        0.87250
C          3.03680       -0.75240        1.75990
C          3.21970       -0.99440        3.10410
C          3.17750       -2.28570        3.63080
S          3.38700       -2.42360        5.37870
C          4.13170       -4.06610        5.68300
C          5.48270       -4.21550        5.01430
C          2.91620       -3.31840        2.73690
C          2.70160       -3.08700        1.39390
F          2.88450       -4.60740        3.14810
C          1.96140       -0.47440       -1.10750
S          1.21480        0.84720       -0.23110
C          4.07330       -3.57950       -1.24340
C          4.48330       -4.19750       -2.37000
S          3.87100       -3.48680       -3.81910
H          3.27480       -7.76090       11.25600
H          2.13750       -5.44550       10.89830
H          1.78180       -2.33050        7.70360
H          1.19890       -0.36350        9.04550
H          0.45600       -1.19240       13.33690
H         -1.29770       -0.87340       13.35220
H         -0.84160        1.54020       13.81860
H         -0.13600        0.51520       15.07440
H          0.89350        1.21680       13.81800
H         -0.25750       -4.81570       10.53790
H          1.22450       -9.83500        7.14590
H          1.89420      -11.78860        5.81350
H          4.97210      -11.07770        2.07300
H          5.21070      -12.81870        2.30930
H          5.72220      -10.66810        4.43650
H          6.96820      -11.53440        3.53470
H          5.92860      -12.40650        4.67020
H          3.19040       -7.28600        4.31550
H          0.88010       -6.68160        3.95990
H         -0.70850       -2.16060        3.77980
H          0.54660       -0.36520        2.81820
H          0.38520        1.77730        4.00530
H         -3.12840        5.07710        5.08730
H         -3.81590        4.26580        3.66770
H         -2.99280        2.88010        6.28070
H         -3.70560        2.07140        4.88100
H         -4.65820        3.23770        5.80160
H         -3.26530        0.40400        1.01200
H         -1.44400       -6.27570       -0.25270
H         -0.90660       -8.19240       -1.68600
H          1.44700       -7.32710       -5.91010
H          0.74040       -8.90590       -6.29750
H         -1.55210       -7.98420       -5.92740
H         -0.86560       -6.40110       -5.55230
H         -0.70250       -7.06470       -7.17870
H          0.92570       -3.76540       -2.78020
H         -1.23690       -2.92290       -3.31990
H         -0.79970       -1.00420       -5.26780
H         -1.72010        0.54040       -7.01230
H         -4.47840        0.25620       -2.38630
H         -5.24650        1.28950       -3.59140
H         -3.98230        1.94030       -2.55400
H         -4.93900        2.33420       -5.50900
H         -2.47930        3.14660       -7.13090
H         -6.20000        3.87290       -6.73320
H         -6.84020        6.29160       -6.88970
H         -1.85210        5.31900       -8.38430
H         -1.55860        5.67760       -6.68470
H         -2.02270        6.97690       -7.79560
H         -5.07060        8.64170       -7.94120
H         -3.54100        9.80150       -6.44090
H         -4.57020        6.95600       -4.34500
H         -4.79230        4.69870       -4.43780
H         -7.04220        3.92880       -3.76930
H         -9.76950        3.77740        0.34850
H         -8.12300        3.79680        1.00760
H         -9.35030        5.97350       -0.77630
H         -9.11910        6.10630        0.97280
H         -7.71940        6.01520       -0.09800
H         -3.65890        4.82860       -0.31420
H          0.92650        6.81320       -6.03570
H          3.16780        7.57290       -6.55450
H          6.51740        9.14380       -6.57200
H          5.10680        8.24210       -7.14240
H          3.61220        9.96130       -6.02410
H          5.05160       10.83280       -5.49290
H          4.67550       10.71860       -7.21640
H          1.99360        6.45140       -1.90210
H          1.68370        4.02700       -2.79180
H          0.91720        1.23760       -3.81940
H          3.29240        0.83050       -4.86560
H          3.13760        1.14410       -7.30920
H         -0.36540       -0.86240       -9.08440
H          0.02060       -0.29990      -10.71990
H          0.04510        1.50360       -8.23940
H          0.33520        2.01290       -9.90240
H         -1.27110        1.44960       -9.42570
H          1.10970       -2.83750       -5.22920
H          3.12780        0.25740        1.39330
H          3.41840       -0.17690        3.77970
H          4.22330       -4.09660        6.76970
H          3.43110       -4.83730        5.37230
H          5.92430       -5.16990        5.29390
H          5.38610       -4.18710        3.93100
H          6.15250       -3.41560        5.32310
H          2.45360       -3.92920        0.76750
H          4.40740       -3.87600       -0.26690
H          5.13120       -5.04830       -2.45090
