222

C          7.23660       -5.08660       -9.09690
C          7.46690       -3.76390       -9.21980
C          6.53490       -2.97030       -8.48950
C          6.51090       -1.57490       -8.34470
C          7.55190       -0.73200       -8.91110
S          7.17090        0.62340       -9.92950
C          8.83710        1.05150      -10.11390
C          9.24120        2.25520      -10.89090
C          9.13570        3.51660      -10.03020
C          9.62860        0.19280       -9.41100
Cl        11.33980        0.30570       -9.34150
C          8.90410       -0.82300       -8.73170
Cl         9.66590       -1.98650       -7.72530
C          5.47260       -1.03590       -7.59680
C          4.48600       -1.83380       -6.96990
C          4.52690       -3.23480       -7.08390
C          3.55520       -4.06530       -6.39190
S          3.25440       -3.84960       -4.68930
C          2.07700       -5.11830       -4.64900
C          1.38790       -5.48280       -3.38070
C          2.30690       -6.27640       -2.45070
C          1.94720       -5.67460       -5.88560
C          2.77610       -5.07900       -6.87580
Cl         2.70100       -5.54340       -8.52360
Cl         0.88900       -6.97070       -6.25040
C          5.55720       -3.77090       -7.84820
S          5.86900       -5.46300       -8.10930
C          3.55410       -1.04780       -6.25250
C          3.82960        0.28870       -6.27920
S          5.24400        0.65340       -7.24130
C          3.12740        1.30140       -5.55800
C          2.10340        1.09170       -4.67980
C          1.66450        2.26730       -4.03010
C          0.65030        2.38690       -3.06290
C         -0.12640        1.22430       -2.66420
S         -0.23180        0.74870       -0.99270
C         -1.13250       -0.67820       -1.37170
C         -1.54810       -1.64150       -0.31340
C         -0.54610       -2.79110       -0.17700
C         -1.33480       -0.76690       -2.71730
Cl        -2.18180       -2.05620       -3.47020
C         -0.77170        0.31030       -3.45220
Cl        -0.96550        0.46460       -5.15200
C          0.51500        3.62600       -2.45330
C          1.33760        4.73610       -2.76710
C          2.29570        4.63490       -3.79020
C          3.11560        5.77740       -4.16130
S          2.37790        7.27320       -4.65490
C          3.91000        8.02990       -4.92730
C          4.00350        9.41640       -5.46110
C          3.94270        9.41630       -6.99060
C          4.92250        7.16140       -4.64820
C          4.47730        5.88530       -4.20840
Cl         5.56230        4.65710       -3.70920
Cl         6.58620        7.55370       -4.79510
C          2.43630        3.39630       -4.40320
S          3.59340        2.98440       -5.63680
C          1.14380        5.81150       -1.85960
C          0.18750        5.56510       -0.92460
S         -0.58210        3.99950       -1.15700
C         -0.06550        6.20910        0.32990
C         -1.17600        6.07780        1.10650
C         -0.94630        6.35120        2.47770
C         -1.81340        6.10380        3.55970
C         -3.23290        5.84500        3.41760
S         -3.90230        4.76250        2.23210
C         -5.51490        4.98180        2.81700
C         -6.67400        4.32270        2.15520
C         -7.21580        5.18760        1.01420
C         -5.52310        5.85680        3.86200
Cl        -6.94410        6.33670        4.69430
C         -4.23430        6.33670        4.21380
Cl        -3.99480        7.48170        5.46570
C         -1.20620        5.96700        4.80400
C          0.16550        6.22450        5.02670
C          0.96110        6.76200        3.99200
C          2.32300        7.16260        4.26320
S          3.65240        6.76220        3.21580
C          4.80240        7.54450        4.24470
C          6.25780        7.57390        3.92610
C          6.53620        7.33990        2.44730
C          4.17740        8.08330        5.33130
C          2.77620        7.86680        5.35010
Cl         1.76450        8.50600        6.57890
Cl         4.99790        8.94790        6.56670
C          0.40090        6.72280        2.71990
S          1.29160        6.87240        1.22780
C          0.64510        5.57230        6.18920
C         -0.29980        4.79590        6.80000
S         -1.90200        5.07700        6.13230
C         -0.06490        3.53890        7.44550
C          1.05910        2.79500        7.20520
C          0.83900        1.40160        7.28520
C          1.64810        0.38750        6.73850
C          2.98880        0.63400        6.23430
S          3.34500        1.92070        5.11670
C          5.01020        1.46130        4.98860
C          5.95280        2.21990        4.12040
C          5.93440        3.71690        4.42470
C          5.25910        0.37420        5.77120
Cl         6.79590       -0.37460        5.91780
C          4.11640       -0.10290        6.46940
Cl         4.18840       -1.42860        7.55140
C          1.04560       -0.84980        6.55380
C         -0.26280       -1.15530        7.00650
C         -1.01570       -0.17770        7.68790
C         -2.35070       -0.43020        8.19860
S         -3.59270       -1.19990        7.25420
C         -4.76370       -1.05650        8.52060
C         -6.13830       -1.60440        8.35760
C         -6.13330       -3.13440        8.38240
C         -4.20950       -0.44960        9.60740
C         -2.84880       -0.08270        9.42540
Cl        -1.92280        0.64810       10.66750
Cl        -5.05270       -0.14050       11.06930
C         -0.46920        1.09890        7.73820
S         -1.37720        2.55470        8.05680
C         -0.70560       -2.40380        6.51680
C          0.17220       -2.99190        5.64720
S          1.68200       -2.11280        5.53430
C         -0.12360       -4.06240        4.76440
S         -1.69600       -4.81940        4.81170
C         -1.42540       -5.68840        3.32560
C         -0.14710       -5.44270        2.84620
C          0.57050       -4.52640        3.66760
S          2.14690       -4.18470        3.03220
C          1.84820       -5.28000        1.71080
C          0.63200       -5.86370        1.72960
C         -2.49220       -6.42720        2.74690
C         -2.64920       -6.81840        1.44720
C         -3.88540       -7.46240        1.19760
C         -4.39220       -7.92000       -0.03040
C         -3.59050       -7.86620       -1.24080
S         -4.18710       -7.10780       -2.68700
C         -2.73750       -7.46200       -3.56560
C         -2.57520       -7.01840       -4.97680
C         -2.43530       -5.49810       -5.07190
C         -1.85320       -8.12780       -2.77000
Cl        -0.31560       -8.68880       -3.29150
C         -2.33050       -8.35330       -1.45070
Cl        -1.42300       -9.22050       -0.27740
C         -5.69300       -8.41040       -0.03280
C         -6.49300       -8.48340        1.13160
C         -5.97920       -8.04790        2.36240
C         -6.76670       -8.06880        3.58540
S         -8.28940       -7.23610        3.69290
C         -8.47900       -7.63610        5.36570
C         -9.63280       -7.13060        6.15940
C         -9.28130       -5.80430        6.83870
C         -7.41800       -8.37330        5.79950
C         -6.44560       -8.62120        4.79360
Cl        -5.05290       -9.58010        5.07230
Cl        -7.25490       -8.95800        7.40410
C         -4.68530       -7.54510        2.36380
S         -3.87780       -6.84760        3.73570
C         -7.77010       -9.05370        0.85860
C         -7.92500       -9.39040       -0.43800
S         -6.54110       -9.04330       -1.41590
H          7.78670       -5.89510       -9.53740
H          8.26140       -3.34900       -9.81170
H         10.27110        2.12590      -11.22830
H          8.59570        2.35720      -11.76500
H          9.42870        4.38860      -10.60850
H          8.11380        3.65230       -9.68400
H          9.78780        3.43720       -9.16420
H          0.51120       -6.08490       -3.62290
H          1.06190       -4.57170       -2.87300
H          3.18720       -5.69030       -2.19680
H          1.77760       -6.53230       -1.53660
H          2.62760       -7.19550       -2.93410
H          2.71090       -1.46010       -5.73270
H          1.70150        0.11940       -4.47020
H         -1.62870       -1.11480        0.63840
H         -2.52770       -2.04890       -0.57300
H          0.43800       -2.40920        0.08350
H         -0.87100       -3.47680        0.60160
H         -0.47240       -3.33910       -1.11290
H          4.94770        9.85530       -5.13330
H          3.18140       10.01430       -5.06440
H          3.00510        8.98310       -7.33080
H          4.01500       10.43290       -7.36700
H          4.76370        8.83320       -7.39980
H          1.72970        6.71270       -1.87130
H         -2.10410        5.70010        0.71910
H         -6.36360        3.35330        1.76200
H         -7.45860        4.16640        2.89790
H         -7.53750        6.15360        1.39450
H         -8.06460        4.69740        0.54540
H         -6.44580        5.34750        0.26330
H          6.65720        8.54220        4.23860
H          6.76530        6.80800        4.52170
H          6.05410        8.10510        1.84430
H          7.60570        7.37010        2.25700
H          6.15340        6.37020        2.13710
H          1.68290        5.56120        6.46660
H          1.96730        3.22760        6.83180
H          6.95540        1.81710        4.27390
H          5.68080        2.06600        3.07230
H          6.19580        3.89580        5.46490
H          6.65230        4.23020        3.79070
H          4.94560        4.12960        4.23670
H         -6.55540       -1.26180        7.40810
H         -6.76020       -1.22320        9.16890
H         -5.52390       -3.52360        7.57000
H         -5.72890       -3.49530        9.32470
H         -7.14650       -3.51140        8.27100
H         -1.67270       -2.82430        6.72190
H          2.62860       -5.42050        0.98840
H          0.30220       -6.58030        1.00060
H         -1.93340       -6.60240        0.67750
H         -1.68830       -7.49760       -5.39310
H         -3.44460       -7.33420       -5.55760
H         -3.32370       -5.01140       -4.67630
H         -1.57230       -5.15670       -4.50570
H         -2.30540       -5.20130       -6.10890
H        -10.49200       -6.98910        5.50230
H         -9.88950       -7.87080        6.91980
H         -8.43270       -5.93870        7.50480
H        -10.12800       -5.44610        7.41820
H         -9.02410       -5.05510        6.09360
H         -8.52350       -9.20290        1.61000
H         -8.78190       -9.83470       -0.90540
