
  xtb     03032211193D
 energy: -428.651349193007 gnorm: 0.000291525656 xtb: 6.4.1 (unknown)
254277  0     0  0            999 V2000
    4.8242   -7.2415   -1.1230 C   0  0  0  0  0  0  0  0  0  0  0  0
    3.3455   -8.1074   -1.1978 S   0  0  0  0  0  0  0  0  0  0  0  0
    2.4314   -6.6244   -1.0903 C   0  0  0  0  0  0  0  0  0  0  0  0
    3.2734   -5.5340   -1.0086 C   0  0  0  0  0  0  0  0  0  0  0  0
    4.6431   -5.8943   -1.0184 C   0  0  0  0  0  0  0  0  0  0  0  0
    5.7674   -4.9028   -0.9230 C   0  0  0  0  0  0  0  0  0  0  0  0
    6.7755   -5.2949    0.1532 C   0  0  0  0  0  0  0  0  0  0  0  0
    6.6265   -6.2408    0.8835 O   0  0  0  0  0  0  0  0  0  0  0  0
    7.9670   -4.3781    0.2631 C   0  0  0  0  0  0  0  0  0  0  0  0
    5.2436   -3.4859   -0.6326 C   0  0  0  0  0  0  0  0  0  0  0  0
    3.9791   -3.2090   -1.4350 C   0  0  0  0  0  0  0  0  0  0  0  0
    2.8469   -4.1025   -0.9392 C   0  0  0  0  0  0  0  0  0  0  0  0
    1.0063   -6.6168   -1.0478 C   0  0  0  0  0  0  0  0  0  0  0  0
    0.2314   -7.7168   -1.1346 C   0  0  0  0  0  0  0  0  0  0  0  0
   -1.1902   -7.7908   -1.0197 C   0  0  0  0  0  0  0  0  0  0  0  0
   -1.9383   -9.2978   -1.4830 S   0  0  0  0  0  0  0  0  0  0  0  0
   -3.5280   -8.6942   -1.1186 C   0  0  0  0  0  0  0  0  0  0  0  0
   -3.4598   -7.4139   -0.6264 C   0  0  0  0  0  0  0  0  0  0  0  0
   -2.1439   -6.8996   -0.5662 C   0  0  0  0  0  0  0  0  0  0  0  0
   -1.8315   -5.5318   -0.0279 C   0  0  0  0  0  0  0  0  0  0  0  0
   -0.8063   -5.5980    1.1079 C   0  0  0  0  0  0  0  0  0  0  0  0
   -0.6087   -6.5981    1.7456 O   0  0  0  0  0  0  0  0  0  0  0  0
   -0.1457   -4.2839    1.4476 C   0  0  0  0  0  0  0  0  0  0  0  0
   -3.0720   -4.8308    0.5602 C   0  0  0  0  0  0  0  0  0  0  0  0
   -4.3194   -5.1345   -0.2587 C   0  0  0  0  0  0  0  0  0  0  0  0
   -4.6313   -6.6209   -0.1381 C   0  0  0  0  0  0  0  0  0  0  0  0
   -4.6966   -9.5260   -1.3500 C   0  0  0  0  0  0  0  0  0  0  0  0
   -5.7514   -9.1731   -2.1001 C   0  0  0  0  0  0  0  0  0  0  0  0
   -5.7642   -7.9552   -2.8753 C   0  0  0  0  0  0  0  0  0  0  0  0
   -4.6925   -7.4117   -3.5063 C   0  0  0  0  0  0  0  0  0  0  0  0
   -4.9356   -6.1314   -4.0595 C   0  0  0  0  0  0  0  0  0  0  0  0
   -3.9854   -5.2623   -4.6127 C   0  0  0  0  0  0  0  0  0  0  0  0
   -2.5775   -5.6709   -4.6926 C   0  0  0  0  0  0  0  0  0  0  0  0
   -2.1880   -6.8700   -5.2877 C   0  0  0  0  0  0  0  0  0  0  0  0
   -0.8698   -7.2675   -5.2668 C   0  0  0  0  0  0  0  0  0  0  0  0
    0.1209   -6.5012   -4.6485 C   0  0  0  0  0  0  0  0  0  0  0  0
    1.7402   -7.1984   -4.6371 S   0  0  0  0  0  0  0  0  0  0  0  0
    2.9027   -5.7886   -4.5575 C   0  0  0  0  0  0  0  0  0  0  0  0
    2.7771   -4.8661   -5.7532 C   0  0  0  0  0  0  0  0  0  0  0  0
   -0.2863   -5.3077   -4.0636 C   0  0  0  0  0  0  0  0  0  0  0  0
    0.5898   -4.4958   -3.4238 F   0  0  0  0  0  0  0  0  0  0  0  0
   -1.6007   -4.8896   -4.0879 C   0  0  0  0  0  0  0  0  0  0  0  0
   -4.4244   -3.9861   -4.9250 C   0  0  0  0  0  0  0  0  0  0  0  0
   -5.7472   -3.5387   -4.6822 C   0  0  0  0  0  0  0  0  0  0  0  0
   -6.6949   -4.4136   -4.1221 C   0  0  0  0  0  0  0  0  0  0  0  0
   -8.0384   -3.9435   -3.7626 C   0  0  0  0  0  0  0  0  0  0  0  0
   -8.1978   -2.8071   -2.9694 C   0  0  0  0  0  0  0  0  0  0  0  0
   -9.4539   -2.3646   -2.6208 C   0  0  0  0  0  0  0  0  0  0  0  0
  -10.6027   -3.0235   -3.0581 C   0  0  0  0  0  0  0  0  0  0  0  0
  -12.1511   -2.3111   -2.5987 S   0  0  0  0  0  0  0  0  0  0  0  0
  -13.2869   -3.7481   -2.4625 C   0  0  0  0  0  0  0  0  0  0  0  0
  -14.4342   -3.3798   -1.5429 C   0  0  0  0  0  0  0  0  0  0  0  0
  -10.4289   -4.1522   -3.8532 C   0  0  0  0  0  0  0  0  0  0  0  0
   -9.1738   -4.6219   -4.1875 C   0  0  0  0  0  0  0  0  0  0  0  0
  -11.4935   -4.8261   -4.3431 F   0  0  0  0  0  0  0  0  0  0  0  0
   -6.2679   -5.7030   -3.8422 C   0  0  0  0  0  0  0  0  0  0  0  0
   -7.1915   -6.9370   -3.0173 S   0  0  0  0  0  0  0  0  0  0  0  0
   -5.9019   -2.1606   -4.9938 C   0  0  0  0  0  0  0  0  0  0  0  0
   -4.7575   -1.5726   -5.4403 C   0  0  0  0  0  0  0  0  0  0  0  0
   -3.4318   -2.7147   -5.5793 S   0  0  0  0  0  0  0  0  0  0  0  0
   -4.4288   -0.1811   -5.5302 C   0  0  0  0  0  0  0  0  0  0  0  0
   -4.9244    0.8147   -4.7403 C   0  0  0  0  0  0  0  0  0  0  0  0
   -4.0962    1.9677   -4.6988 C   0  0  0  0  0  0  0  0  0  0  0  0
   -4.1575    3.0164   -3.7586 C   0  0  0  0  0  0  0  0  0  0  0  0
   -5.3690    3.1854   -2.9503 C   0  0  0  0  0  0  0  0  0  0  0  0
   -6.6161    3.1527   -3.5742 C   0  0  0  0  0  0  0  0  0  0  0  0
   -7.7856    3.2664   -2.8506 C   0  0  0  0  0  0  0  0  0  0  0  0
   -7.7562    3.4042   -1.4666 C   0  0  0  0  0  0  0  0  0  0  0  0
   -9.1761    3.5444   -0.4335 S   0  0  0  0  0  0  0  0  0  0  0  0
  -10.5153    2.8004   -1.4306 C   0  0  0  0  0  0  0  0  0  0  0  0
  -10.3048    1.3154   -1.6544 C   0  0  0  0  0  0  0  0  0  0  0  0
   -6.5017    3.4592   -0.8569 C   0  0  0  0  0  0  0  0  0  0  0  0
   -6.4285    3.6007    0.4813 F   0  0  0  0  0  0  0  0  0  0  0  0
   -5.3271    3.3530   -1.5680 C   0  0  0  0  0  0  0  0  0  0  0  0
   -2.9980    3.7642   -3.6038 C   0  0  0  0  0  0  0  0  0  0  0  0
   -1.8630    3.6062   -4.4422 C   0  0  0  0  0  0  0  0  0  0  0  0
   -1.8668    2.6622   -5.4796 C   0  0  0  0  0  0  0  0  0  0  0  0
   -0.7159    2.4514   -6.3682 C   0  0  0  0  0  0  0  0  0  0  0  0
   -0.8884    2.4713   -7.7508 C   0  0  0  0  0  0  0  0  0  0  0  0
    0.1855    2.2900   -8.5958 C   0  0  0  0  0  0  0  0  0  0  0  0
    1.4672    2.0622   -8.0988 C   0  0  0  0  0  0  0  0  0  0  0  0
    2.7665    1.8095   -9.2722 S   0  0  0  0  0  0  0  0  0  0  0  0
    4.2018    2.6837   -8.5419 C   0  0  0  0  0  0  0  0  0  0  0  0
    3.9062    4.1470   -8.2833 C   0  0  0  0  0  0  0  0  0  0  0  0
    1.6126    1.9925   -6.7170 C   0  0  0  0  0  0  0  0  0  0  0  0
    0.5515    2.1930   -5.8580 C   0  0  0  0  0  0  0  0  0  0  0  0
    2.8126    1.7150   -6.1607 F   0  0  0  0  0  0  0  0  0  0  0  0
   -2.9689    1.8268   -5.5413 C   0  0  0  0  0  0  0  0  0  0  0  0
   -3.0057    0.3211   -6.4210 S   0  0  0  0  0  0  0  0  0  0  0  0
   -0.7428    4.3270   -3.9634 C   0  0  0  0  0  0  0  0  0  0  0  0
   -0.9568    4.9450   -2.7679 C   0  0  0  0  0  0  0  0  0  0  0  0
   -2.6456    4.8635   -2.2873 S   0  0  0  0  0  0  0  0  0  0  0  0
    0.0587    5.2311   -1.8016 C   0  0  0  0  0  0  0  0  0  0  0  0
   -0.0273    5.8123   -0.5739 C   0  0  0  0  0  0  0  0  0  0  0  0
    1.0591    5.4899    0.2872 C   0  0  0  0  0  0  0  0  0  0  0  0
    1.2090    5.7861    1.6521 C   0  0  0  0  0  0  0  0  0  0  0  0
    0.2631    6.6440    2.3783 C   0  0  0  0  0  0  0  0  0  0  0  0
   -1.1078    6.3923    2.3673 C   0  0  0  0  0  0  0  0  0  0  0  0
   -1.9743    7.2064    3.0636 C   0  0  0  0  0  0  0  0  0  0  0  0
   -1.5159    8.2960    3.8042 C   0  0  0  0  0  0  0  0  0  0  0  0
   -2.7357    9.2234    4.6832 S   0  0  0  0  0  0  0  0  0  0  0  0
   -2.1277   10.9500    4.6632 C   0  0  0  0  0  0  0  0  0  0  0  0
   -1.9414   11.4721    3.2528 C   0  0  0  0  0  0  0  0  0  0  0  0
   -0.1413    8.5120    3.8344 C   0  0  0  0  0  0  0  0  0  0  0  0
    0.3912    9.5208    4.5582 F   0  0  0  0  0  0  0  0  0  0  0  0
    0.7370    7.7126    3.1307 C   0  0  0  0  0  0  0  0  0  0  0  0
    2.2566    5.1621    2.3170 C   0  0  0  0  0  0  0  0  0  0  0  0
    3.1371    4.2483    1.6885 C   0  0  0  0  0  0  0  0  0  0  0  0
    3.0276    3.9955    0.3134 C   0  0  0  0  0  0  0  0  0  0  0  0
    3.8430    2.9743   -0.3587 C   0  0  0  0  0  0  0  0  0  0  0  0
    3.9271    1.6837    0.1631 C   0  0  0  0  0  0  0  0  0  0  0  0
    4.6466    0.7054   -0.4894 C   0  0  0  0  0  0  0  0  0  0  0  0
    5.3084    0.9736   -1.6844 C   0  0  0  0  0  0  0  0  0  0  0  0
    6.2390   -0.3349   -2.4341 S   0  0  0  0  0  0  0  0  0  0  0  0
    5.7062   -0.2683   -4.1844 C   0  0  0  0  0  0  0  0  0  0  0  0
    4.2168   -0.4991   -4.3308 C   0  0  0  0  0  0  0  0  0  0  0  0
    5.2314    2.2691   -2.1861 C   0  0  0  0  0  0  0  0  0  0  0  0
    4.5014    3.2545   -1.5510 C   0  0  0  0  0  0  0  0  0  0  0  0
    5.8834    2.6062   -3.3182 F   0  0  0  0  0  0  0  0  0  0  0  0
    2.0026    4.6463   -0.3526 C   0  0  0  0  0  0  0  0  0  0  0  0
    1.5694    4.3483   -2.0106 S   0  0  0  0  0  0  0  0  0  0  0  0
    3.9893    3.6081    2.6213 C   0  0  0  0  0  0  0  0  0  0  0  0
    3.7552    3.9714    3.9125 C   0  0  0  0  0  0  0  0  0  0  0  0
    2.5334    5.2194    4.0417 S   0  0  0  0  0  0  0  0  0  0  0  0
    4.2784    3.2756    5.0539 C   0  0  0  0  0  0  0  0  0  0  0  0
    4.4774    1.9282    5.0698 C   0  0  0  0  0  0  0  0  0  0  0  0
    4.9059    1.4288    6.3245 C   0  0  0  0  0  0  0  0  0  0  0  0
    5.1589    0.0914    6.6696 C   0  0  0  0  0  0  0  0  0  0  0  0
    4.8274   -0.9890    5.7325 C   0  0  0  0  0  0  0  0  0  0  0  0
    3.5694   -1.0065    5.1265 C   0  0  0  0  0  0  0  0  0  0  0  0
    3.2303   -1.9967    4.2327 C   0  0  0  0  0  0  0  0  0  0  0  0
    4.1298   -3.0082    3.8977 C   0  0  0  0  0  0  0  0  0  0  0  0
    3.6106   -4.1762    2.6791 S   0  0  0  0  0  0  0  0  0  0  0  0
    4.3413   -5.7734    3.2055 C   0  0  0  0  0  0  0  0  0  0  0  0
    3.4700   -6.8948    2.6776 C   0  0  0  0  0  0  0  0  0  0  0  0
    5.3803   -2.9802    4.5081 C   0  0  0  0  0  0  0  0  0  0  0  0
    6.3129   -3.9068    4.1994 F   0  0  0  0  0  0  0  0  0  0  0  0
    5.7264   -2.0029    5.4220 C   0  0  0  0  0  0  0  0  0  0  0  0
    5.6577   -0.1301    7.9444 C   0  0  0  0  0  0  0  0  0  0  0  0
    5.8688    0.9118    8.8813 C   0  0  0  0  0  0  0  0  0  0  0  0
    5.5709    2.2418    8.5474 C   0  0  0  0  0  0  0  0  0  0  0  0
    5.7768    3.3402    9.5000 C   0  0  0  0  0  0  0  0  0  0  0  0
    7.0037    3.5131   10.1334 C   0  0  0  0  0  0  0  0  0  0  0  0
    7.2112    4.5518   11.0205 C   0  0  0  0  0  0  0  0  0  0  0  0
    6.1954    5.4569   11.3063 C   0  0  0  0  0  0  0  0  0  0  0  0
    6.3088    6.8021   12.4380 S   0  0  0  0  0  0  0  0  0  0  0  0
    8.1016    6.9979   12.7255 C   0  0  0  0  0  0  0  0  0  0  0  0
    8.8227    7.5444   11.5082 C   0  0  0  0  0  0  0  0  0  0  0  0
    4.9687    5.2681   10.6662 C   0  0  0  0  0  0  0  0  0  0  0  0
    4.7508    4.2412    9.7759 C   0  0  0  0  0  0  0  0  0  0  0  0
    3.9576    6.1178   10.9310 F   0  0  0  0  0  0  0  0  0  0  0  0
    5.0809    2.4676    7.2688 C   0  0  0  0  0  0  0  0  0  0  0  0
    4.6360    4.0184    6.5951 S   0  0  0  0  0  0  0  0  0  0  0  0
    6.3179    0.4002   10.1362 C   0  0  0  0  0  0  0  0  0  0  0  0
    6.4485   -0.9413   10.1420 C   0  0  0  0  0  0  0  0  0  0  0  0
    6.0368   -1.6863    8.6354 S   0  0  0  0  0  0  0  0  0  0  0  0
    5.7490   -7.7821   -1.1490 H   0  0  0  0  0  0  0  0  0  0  0  0
    6.3079   -4.8903   -1.8791 H   0  0  0  0  0  0  0  0  0  0  0  0
    8.2622   -3.9788   -0.7025 H   0  0  0  0  0  0  0  0  0  0  0  0
    8.7962   -4.9102    0.7230 H   0  0  0  0  0  0  0  0  0  0  0  0
    7.7012   -3.5466    0.9144 H   0  0  0  0  0  0  0  0  0  0  0  0
    6.0104   -2.7511   -0.8798 H   0  0  0  0  0  0  0  0  0  0  0  0
    5.0065   -3.3994    0.4300 H   0  0  0  0  0  0  0  0  0  0  0  0
    3.6937   -2.1612   -1.3290 H   0  0  0  0  0  0  0  0  0  0  0  0
    4.1695   -3.4052   -2.4932 H   0  0  0  0  0  0  0  0  0  0  0  0
    2.6159   -3.8433    0.0983 H   0  0  0  0  0  0  0  0  0  0  0  0
    1.9491   -3.9376   -1.5349 H   0  0  0  0  0  0  0  0  0  0  0  0
    0.5704   -5.6393   -0.9287 H   0  0  0  0  0  0  0  0  0  0  0  0
    0.7213   -8.6678   -1.3063 H   0  0  0  0  0  0  0  0  0  0  0  0
   -1.4426   -4.9120   -0.8438 H   0  0  0  0  0  0  0  0  0  0  0  0
    0.8588   -4.4672    1.8230 H   0  0  0  0  0  0  0  0  0  0  0  0
   -0.7165   -3.8145    2.2482 H   0  0  0  0  0  0  0  0  0  0  0  0
   -0.1113   -3.6056    0.6007 H   0  0  0  0  0  0  0  0  0  0  0  0
   -3.2341   -5.1827    1.5823 H   0  0  0  0  0  0  0  0  0  0  0  0
   -2.8898   -3.7553    0.5984 H   0  0  0  0  0  0  0  0  0  0  0  0
   -4.1547   -4.8757   -1.3081 H   0  0  0  0  0  0  0  0  0  0  0  0
   -5.1601   -4.5438    0.1102 H   0  0  0  0  0  0  0  0  0  0  0  0
   -5.5334   -6.8747   -0.6915 H   0  0  0  0  0  0  0  0  0  0  0  0
   -4.8149   -6.8668    0.9131 H   0  0  0  0  0  0  0  0  0  0  0  0
   -4.6869  -10.4990   -0.8757 H   0  0  0  0  0  0  0  0  0  0  0  0
   -6.6310   -9.7997   -2.1382 H   0  0  0  0  0  0  0  0  0  0  0  0
   -3.7370   -7.8990   -3.5500 H   0  0  0  0  0  0  0  0  0  0  0  0
   -2.9236   -7.4815   -5.7875 H   0  0  0  0  0  0  0  0  0  0  0  0
   -0.5745   -8.1966   -5.7290 H   0  0  0  0  0  0  0  0  0  0  0  0
    3.8762   -6.2801   -4.5399 H   0  0  0  0  0  0  0  0  0  0  0  0
    2.7575   -5.2668   -3.6156 H   0  0  0  0  0  0  0  0  0  0  0  0
    3.5451   -4.0964   -5.7052 H   0  0  0  0  0  0  0  0  0  0  0  0
    2.8984   -5.4227   -6.6799 H   0  0  0  0  0  0  0  0  0  0  0  0
    1.8053   -4.3775   -5.7687 H   0  0  0  0  0  0  0  0  0  0  0  0
   -1.8539   -3.9599   -3.6017 H   0  0  0  0  0  0  0  0  0  0  0  0
   -7.3258   -2.2896   -2.5991 H   0  0  0  0  0  0  0  0  0  0  0  0
   -9.5741   -1.4936   -1.9962 H   0  0  0  0  0  0  0  0  0  0  0  0
  -12.7079   -4.5768   -2.0581 H   0  0  0  0  0  0  0  0  0  0  0  0
  -13.6454   -3.9988   -3.4598 H   0  0  0  0  0  0  0  0  0  0  0  0
  -14.0640   -3.1233   -0.5528 H   0  0  0  0  0  0  0  0  0  0  0  0
  -15.1169   -4.2221   -1.4548 H   0  0  0  0  0  0  0  0  0  0  0  0
  -14.9820   -2.5271   -1.9379 H   0  0  0  0  0  0  0  0  0  0  0  0
   -9.0978   -5.5012   -4.8080 H   0  0  0  0  0  0  0  0  0  0  0  0
   -6.8289   -1.6282   -4.8833 H   0  0  0  0  0  0  0  0  0  0  0  0
   -5.7787    0.6806   -4.1015 H   0  0  0  0  0  0  0  0  0  0  0  0
   -6.6679    3.0534   -4.6482 H   0  0  0  0  0  0  0  0  0  0  0  0
   -8.7275    3.2520   -3.3749 H   0  0  0  0  0  0  0  0  0  0  0  0
  -11.4057    2.9798   -0.8285 H   0  0  0  0  0  0  0  0  0  0  0  0
  -10.6116    3.3536   -2.3639 H   0  0  0  0  0  0  0  0  0  0  0  0
  -10.2216    0.8038   -0.6980 H   0  0  0  0  0  0  0  0  0  0  0  0
   -9.3956    1.1348   -2.2251 H   0  0  0  0  0  0  0  0  0  0  0  0
  -11.1474    0.8947   -2.2001 H   0  0  0  0  0  0  0  0  0  0  0  0
   -4.3932    3.3673   -1.0303 H   0  0  0  0  0  0  0  0  0  0  0  0
   -1.8694    2.6544   -8.1617 H   0  0  0  0  0  0  0  0  0  0  0  0
    0.0512    2.3239   -9.6655 H   0  0  0  0  0  0  0  0  0  0  0  0
    4.5132    2.1654   -7.6379 H   0  0  0  0  0  0  0  0  0  0  0  0
    4.9745    2.5670   -9.3018 H   0  0  0  0  0  0  0  0  0  0  0  0
    3.5760    4.6379   -9.1964 H   0  0  0  0  0  0  0  0  0  0  0  0
    3.1288    4.2591   -7.5296 H   0  0  0  0  0  0  0  0  0  0  0  0
    4.8055    4.6428   -7.9238 H   0  0  0  0  0  0  0  0  0  0  0  0
    0.7216    2.1041   -4.7961 H   0  0  0  0  0  0  0  0  0  0  0  0
    0.2215    4.3120   -4.4375 H   0  0  0  0  0  0  0  0  0  0  0  0
   -0.8696    6.4087   -0.2729 H   0  0  0  0  0  0  0  0  0  0  0  0
   -1.4932    5.5413    1.8270 H   0  0  0  0  0  0  0  0  0  0  0  0
   -3.0351    7.0095    3.0511 H   0  0  0  0  0  0  0  0  0  0  0  0
   -1.2129   11.0131    5.2478 H   0  0  0  0  0  0  0  0  0  0  0  0
   -2.9179   11.4938    5.1813 H   0  0  0  0  0  0  0  0  0  0  0  0
   -1.1560   10.9243    2.7358 H   0  0  0  0  0  0  0  0  0  0  0  0
   -1.6605   12.5228    3.2862 H   0  0  0  0  0  0  0  0  0  0  0  0
   -2.8637   11.3736    2.6841 H   0  0  0  0  0  0  0  0  0  0  0  0
    1.7915    7.9370    3.1782 H   0  0  0  0  0  0  0  0  0  0  0  0
    3.3925    1.4375    1.0679 H   0  0  0  0  0  0  0  0  0  0  0  0
    4.7033   -0.2922   -0.0819 H   0  0  0  0  0  0  0  0  0  0  0  0
    6.0125    0.6855   -4.6076 H   0  0  0  0  0  0  0  0  0  0  0  0
    6.2804   -1.0665   -4.6550 H   0  0  0  0  0  0  0  0  0  0  0  0
    3.9254   -1.4462   -3.8828 H   0  0  0  0  0  0  0  0  0  0  0  0
    3.6542    0.2996   -3.8513 H   0  0  0  0  0  0  0  0  0  0  0  0
    3.9532   -0.5134   -5.3855 H   0  0  0  0  0  0  0  0  0  0  0  0
    4.4775    4.2432   -1.9822 H   0  0  0  0  0  0  0  0  0  0  0  0
    4.7455    2.8969    2.3442 H   0  0  0  0  0  0  0  0  0  0  0  0
    4.3096    1.3037    4.2117 H   0  0  0  0  0  0  0  0  0  0  0  0
    2.8447   -0.2494    5.3847 H   0  0  0  0  0  0  0  0  0  0  0  0
    2.2547   -2.0083    3.7721 H   0  0  0  0  0  0  0  0  0  0  0  0
    5.3502   -5.8432    2.8018 H   0  0  0  0  0  0  0  0  0  0  0  0
    4.3689   -5.7621    4.2942 H   0  0  0  0  0  0  0  0  0  0  0  0
    3.4548   -6.8801    1.5910 H   0  0  0  0  0  0  0  0  0  0  0  0
    2.4467   -6.8065    3.0380 H   0  0  0  0  0  0  0  0  0  0  0  0
    3.8769   -7.8496    3.0011 H   0  0  0  0  0  0  0  0  0  0  0  0
    6.7138   -2.0264    5.8558 H   0  0  0  0  0  0  0  0  0  0  0  0
    7.8158    2.8362    9.9137 H   0  0  0  0  0  0  0  0  0  0  0  0
    8.1754    4.6457   11.4931 H   0  0  0  0  0  0  0  0  0  0  0  0
    8.5099    6.0455   13.0612 H   0  0  0  0  0  0  0  0  0  0  0  0
    8.1489    7.7048   13.5538 H   0  0  0  0  0  0  0  0  0  0  0  0
    9.8790    7.6790   11.7328 H   0  0  0  0  0  0  0  0  0  0  0  0
    8.4019    8.5062   11.2250 H   0  0  0  0  0  0  0  0  0  0  0  0
    8.7302    6.8680   10.6611 H   0  0  0  0  0  0  0  0  0  0  0  0
    3.7792    4.1410    9.3187 H   0  0  0  0  0  0  0  0  0  0  0  0
    6.5098    1.0219   10.9916 H   0  0  0  0  0  0  0  0  0  0  0  0
    6.7667   -1.5689   10.9515 H   0  0  0  0  0  0  0  0  0  0  0  0
  1  2  1  0  0  0  0
  2  3  1  0  0  0  0
  3  4  2  0  0  0  0
  4  5  1  0  0  0  0
  5  6  1  0  0  0  0
  6  7  1  0  0  0  0
  7  8  2  0  0  0  0
  7  9  1  0  0  0  0
  6 10  1  0  0  0  0
 10 11  1  0  0  0  0
 11 12  1  0  0  0  0
  3 13  1  0  0  0  0
 13 14  2  0  0  0  0
 14 15  1  0  0  0  0
 15 16  1  0  0  0  0
 16 17  1  0  0  0  0
 17 18  2  0  0  0  0
 18 19  1  0  0  0  0
 19 20  1  0  0  0  0
 20 21  1  0  0  0  0
 21 22  2  0  0  0  0
 21 23  1  0  0  0  0
 20 24  1  0  0  0  0
 24 25  1  0  0  0  0
 25 26  1  0  0  0  0
 17 27  1  0  0  0  0
 27 28  2  0  0  0  0
 28 29  1  0  0  0  0
 29 30  2  0  0  0  0
 30 31  1  0  0  0  0
 31 32  2  0  0  0  0
 32 33  1  0  0  0  0
 33 34  2  0  0  0  0
 34 35  1  0  0  0  0
 35 36  2  0  0  0  0
 36 37  1  0  0  0  0
 37 38  1  0  0  0  0
 38 39  1  0  0  0  0
 36 40  1  0  0  0  0
 40 41  1  0  0  0  0
 40 42  2  0  0  0  0
 32 43  1  0  0  0  0
 43 44  2  0  0  0  0
 44 45  1  0  0  0  0
 45 46  1  0  0  0  0
 46 47  2  0  0  0  0
 47 48  1  0  0  0  0
 48 49  2  0  0  0  0
 49 50  1  0  0  0  0
 50 51  1  0  0  0  0
 51 52  1  0  0  0  0
 49 53  1  0  0  0  0
 53 54  2  0  0  0  0
 53 55  1  0  0  0  0
 45 56  2  0  0  0  0
 56 57  1  0  0  0  0
 44 58  1  0  0  0  0
 58 59  2  0  0  0  0
 59 60  1  0  0  0  0
 59 61  1  0  0  0  0
 61 62  2  0  0  0  0
 62 63  1  0  0  0  0
 63 64  2  0  0  0  0
 64 65  1  0  0  0  0
 65 66  2  0  0  0  0
 66 67  1  0  0  0  0
 67 68  2  0  0  0  0
 68 69  1  0  0  0  0
 69 70  1  0  0  0  0
 70 71  1  0  0  0  0
 68 72  1  0  0  0  0
 72 73  1  0  0  0  0
 72 74  2  0  0  0  0
 64 75  1  0  0  0  0
 75 76  2  0  0  0  0
 76 77  1  0  0  0  0
 77 78  1  0  0  0  0
 78 79  2  0  0  0  0
 79 80  1  0  0  0  0
 80 81  2  0  0  0  0
 81 82  1  0  0  0  0
 82 83  1  0  0  0  0
 83 84  1  0  0  0  0
 81 85  1  0  0  0  0
 85 86  2  0  0  0  0
 85 87  1  0  0  0  0
 77 88  2  0  0  0  0
 88 89  1  0  0  0  0
 76 90  1  0  0  0  0
 90 91  2  0  0  0  0
 91 92  1  0  0  0  0
 91 93  1  0  0  0  0
 93 94  2  0  0  0  0
 94 95  1  0  0  0  0
 95 96  2  0  0  0  0
 96 97  1  0  0  0  0
 97 98  2  0  0  0  0
 98 99  1  0  0  0  0
 99100  2  0  0  0  0
100101  1  0  0  0  0
101102  1  0  0  0  0
102103  1  0  0  0  0
100104  1  0  0  0  0
104105  1  0  0  0  0
104106  2  0  0  0  0
 96107  1  0  0  0  0
107108  2  0  0  0  0
108109  1  0  0  0  0
109110  1  0  0  0  0
110111  2  0  0  0  0
111112  1  0  0  0  0
112113  2  0  0  0  0
113114  1  0  0  0  0
114115  1  0  0  0  0
115116  1  0  0  0  0
113117  1  0  0  0  0
117118  2  0  0  0  0
117119  1  0  0  0  0
109120  2  0  0  0  0
120121  1  0  0  0  0
108122  1  0  0  0  0
122123  2  0  0  0  0
123124  1  0  0  0  0
123125  1  0  0  0  0
125126  2  0  0  0  0
126127  1  0  0  0  0
127128  2  0  0  0  0
128129  1  0  0  0  0
129130  2  0  0  0  0
130131  1  0  0  0  0
131132  2  0  0  0  0
132133  1  0  0  0  0
133134  1  0  0  0  0
134135  1  0  0  0  0
132136  1  0  0  0  0
136137  1  0  0  0  0
136138  2  0  0  0  0
128139  1  0  0  0  0
139140  2  0  0  0  0
140141  1  0  0  0  0
141142  1  0  0  0  0
142143  2  0  0  0  0
143144  1  0  0  0  0
144145  2  0  0  0  0
145146  1  0  0  0  0
146147  1  0  0  0  0
147148  1  0  0  0  0
145149  1  0  0  0  0
149150  2  0  0  0  0
149151  1  0  0  0  0
141152  2  0  0  0  0
152153  1  0  0  0  0
140154  1  0  0  0  0
154155  2  0  0  0  0
155156  1  0  0  0  0
  5  1  2  0  0  0  0
 19 15  2  0  0  0  0
 57 29  1  0  0  0  0
 89 61  1  0  0  0  0
121 93  1  0  0  0  0
153125  1  0  0  0  0
 12  4  1  0  0  0  0
 26 18  1  0  0  0  0
 56 31  1  0  0  0  0
 88 63  1  0  0  0  0
120 95  1  0  0  0  0
152127  1  0  0  0  0
 42 33  1  0  0  0  0
 60 43  1  0  0  0  0
 74 65  1  0  0  0  0
 92 75  1  0  0  0  0
106 97  1  0  0  0  0
124107  1  0  0  0  0
138129  1  0  0  0  0
156139  1  0  0  0  0
 54 46  1  0  0  0  0
 86 78  1  0  0  0  0
118110  1  0  0  0  0
150142  1  0  0  0  0
  1157  1  0  0  0  0
  6158  1  0  0  0  0
  9159  1  0  0  0  0
  9160  1  0  0  0  0
  9161  1  0  0  0  0
 10162  1  0  0  0  0
 10163  1  0  0  0  0
 11164  1  0  0  0  0
 11165  1  0  0  0  0
 12166  1  0  0  0  0
 12167  1  0  0  0  0
 13168  1  0  0  0  0
 14169  1  0  0  0  0
 20170  1  0  0  0  0
 23171  1  0  0  0  0
 23172  1  0  0  0  0
 23173  1  0  0  0  0
 24174  1  0  0  0  0
 24175  1  0  0  0  0
 25176  1  0  0  0  0
 25177  1  0  0  0  0
 26178  1  0  0  0  0
 26179  1  0  0  0  0
 27180  1  0  0  0  0
 28181  1  0  0  0  0
 30182  1  0  0  0  0
 34183  1  0  0  0  0
 35184  1  0  0  0  0
 38185  1  0  0  0  0
 38186  1  0  0  0  0
 39187  1  0  0  0  0
 39188  1  0  0  0  0
 39189  1  0  0  0  0
 42190  1  0  0  0  0
 47191  1  0  0  0  0
 48192  1  0  0  0  0
 51193  1  0  0  0  0
 51194  1  0  0  0  0
 52195  1  0  0  0  0
 52196  1  0  0  0  0
 52197  1  0  0  0  0
 54198  1  0  0  0  0
 58199  1  0  0  0  0
 62200  1  0  0  0  0
 66201  1  0  0  0  0
 67202  1  0  0  0  0
 70203  1  0  0  0  0
 70204  1  0  0  0  0
 71205  1  0  0  0  0
 71206  1  0  0  0  0
 71207  1  0  0  0  0
 74208  1  0  0  0  0
 79209  1  0  0  0  0
 80210  1  0  0  0  0
 83211  1  0  0  0  0
 83212  1  0  0  0  0
 84213  1  0  0  0  0
 84214  1  0  0  0  0
 84215  1  0  0  0  0
 86216  1  0  0  0  0
 90217  1  0  0  0  0
 94218  1  0  0  0  0
 98219  1  0  0  0  0
 99220  1  0  0  0  0
102221  1  0  0  0  0
102222  1  0  0  0  0
103223  1  0  0  0  0
103224  1  0  0  0  0
103225  1  0  0  0  0
106226  1  0  0  0  0
111227  1  0  0  0  0
112228  1  0  0  0  0
115229  1  0  0  0  0
115230  1  0  0  0  0
116231  1  0  0  0  0
116232  1  0  0  0  0
116233  1  0  0  0  0
118234  1  0  0  0  0
122235  1  0  0  0  0
126236  1  0  0  0  0
130237  1  0  0  0  0
131238  1  0  0  0  0
134239  1  0  0  0  0
134240  1  0  0  0  0
135241  1  0  0  0  0
135242  1  0  0  0  0
135243  1  0  0  0  0
138244  1  0  0  0  0
143245  1  0  0  0  0
144246  1  0  0  0  0
147247  1  0  0  0  0
147248  1  0  0  0  0
148249  1  0  0  0  0
148250  1  0  0  0  0
148251  1  0  0  0  0
150252  1  0  0  0  0
154253  1  0  0  0  0
155254  1  0  0  0  0
M  END
