
  xtb     03032203083D
 energy: -462.594120521058 gnorm: 0.000569558121 xtb: 6.4.1 (unknown)
238264  0     0  0            999 V2000
    6.5606   -5.6055    7.7542 C   0  0  0  0  0  0  0  0  0  0  0  0
    7.0036   -4.3379    7.8813 C   0  0  0  0  0  0  0  0  0  0  0  0
    6.4517   -3.4585    6.9047 C   0  0  0  0  0  0  0  0  0  0  0  0
    6.6654   -2.0781    6.7552 C   0  0  0  0  0  0  0  0  0  0  0  0
    7.6090   -1.3555    7.5928 C   0  0  0  0  0  0  0  0  0  0  0  0
    7.1377    0.0784    8.4539 S   0  0  0  0  0  0  0  0  0  0  0  0
    8.7269    0.3057    9.1010 C   0  0  0  0  0  0  0  0  0  0  0  0
    9.0415    1.4817    9.9579 C   0  0  0  0  0  0  0  0  0  0  0  0
    9.0898    2.7655    9.1269 C   0  0  0  0  0  0  0  0  0  0  0  0
    9.5631   -0.6756    8.6595 C   0  0  0  0  0  0  0  0  0  0  0  0
   11.2248   -0.7832    9.0766 Cl  0  0  0  0  0  0  0  0  0  0  0  0
    8.9319   -1.6223    7.8080 C   0  0  0  0  0  0  0  0  0  0  0  0
    9.7861   -2.9149    7.0680 Cl  0  0  0  0  0  0  0  0  0  0  0  0
    5.9462   -1.4313    5.7589 C   0  0  0  0  0  0  0  0  0  0  0  0
    5.0571   -2.1146    4.8968 C   0  0  0  0  0  0  0  0  0  0  0  0
    4.8288   -3.4914    5.0533 C   0  0  0  0  0  0  0  0  0  0  0  0
    3.8610   -4.1679    4.2083 C   0  0  0  0  0  0  0  0  0  0  0  0
    4.2593   -5.6037    3.3161 S   0  0  0  0  0  0  0  0  0  0  0  0
    2.6890   -5.6914    2.5982 C   0  0  0  0  0  0  0  0  0  0  0  0
    2.3379   -6.7728    1.6359 C   0  0  0  0  0  0  0  0  0  0  0  0
    2.2276   -6.2466    0.2042 C   0  0  0  0  0  0  0  0  0  0  0  0
    1.9113   -4.6595    3.0346 C   0  0  0  0  0  0  0  0  0  0  0  0
    2.5684   -3.7986    3.9505 C   0  0  0  0  0  0  0  0  0  0  0  0
    1.7606   -2.4885    4.7082 Cl  0  0  0  0  0  0  0  0  0  0  0  0
    0.2946   -4.3850    2.5330 Cl  0  0  0  0  0  0  0  0  0  0  0  0
    5.5502   -4.1370    6.0486 C   0  0  0  0  0  0  0  0  0  0  0  0
    5.4380   -5.8240    6.4582 S   0  0  0  0  0  0  0  0  0  0  0  0
    4.5066   -1.2537    3.9197 C   0  0  0  0  0  0  0  0  0  0  0  0
    4.9090    0.0423    4.0415 C   0  0  0  0  0  0  0  0  0  0  0  0
    6.0387    0.2653    5.3607 S   0  0  0  0  0  0  0  0  0  0  0  0
    4.4323    1.1256    3.2466 C   0  0  0  0  0  0  0  0  0  0  0  0
    4.7471    2.4508    3.2858 C   0  0  0  0  0  0  0  0  0  0  0  0
    3.9864    3.2379    2.3816 C   0  0  0  0  0  0  0  0  0  0  0  0
    4.0524    4.6259    2.1560 C   0  0  0  0  0  0  0  0  0  0  0  0
    4.9084    5.4754    2.9647 C   0  0  0  0  0  0  0  0  0  0  0  0
    6.0265    6.5902    2.2368 S   0  0  0  0  0  0  0  0  0  0  0  0
    6.6028    7.1368    3.7737 C   0  0  0  0  0  0  0  0  0  0  0  0
    7.6256    8.2137    3.8744 C   0  0  0  0  0  0  0  0  0  0  0  0
    6.9755    9.5943    3.7555 C   0  0  0  0  0  0  0  0  0  0  0  0
    5.9466    6.4954    4.7818 C   0  0  0  0  0  0  0  0  0  0  0  0
    6.2400    6.7799    6.4485 Cl  0  0  0  0  0  0  0  0  0  0  0  0
    4.9890    5.5494    4.3286 C   0  0  0  0  0  0  0  0  0  0  0  0
    3.9861    4.6663    5.4069 Cl  0  0  0  0  0  0  0  0  0  0  0  0
    3.2615    5.1368    1.1322 C   0  0  0  0  0  0  0  0  0  0  0  0
    2.3929    4.3266    0.3648 C   0  0  0  0  0  0  0  0  0  0  0  0
    2.2577    2.9570    0.6411 C   0  0  0  0  0  0  0  0  0  0  0  0
    1.2860    2.1280   -0.0527 C   0  0  0  0  0  0  0  0  0  0  0  0
    1.1651    2.1083   -1.7884 S   0  0  0  0  0  0  0  0  0  0  0  0
   -0.1554    0.9946   -1.7714 C   0  0  0  0  0  0  0  0  0  0  0  0
   -0.7965    0.5250   -3.0305 C   0  0  0  0  0  0  0  0  0  0  0  0
   -0.3917   -0.9097   -3.3730 C   0  0  0  0  0  0  0  0  0  0  0  0
   -0.4640    0.6532   -0.4887 C   0  0  0  0  0  0  0  0  0  0  0  0
    0.3455    1.2914    0.4867 C   0  0  0  0  0  0  0  0  0  0  0  0
    0.0638    1.0820    2.1616 Cl  0  0  0  0  0  0  0  0  0  0  0  0
   -1.7141   -0.4392   -0.0626 Cl  0  0  0  0  0  0  0  0  0  0  0  0
    3.0804    2.4445    1.6343 C   0  0  0  0  0  0  0  0  0  0  0  0
    3.1870    0.7701    2.0689 S   0  0  0  0  0  0  0  0  0  0  0  0
    1.6840    5.0851   -0.5959 C   0  0  0  0  0  0  0  0  0  0  0  0
    1.9605    6.4141   -0.5615 C   0  0  0  0  0  0  0  0  0  0  0  0
    3.1380    6.8173    0.6609 S   0  0  0  0  0  0  0  0  0  0  0  0
    1.2200    7.3020   -1.4352 C   0  0  0  0  0  0  0  0  0  0  0  0
    0.1176    8.0277   -1.1192 C   0  0  0  0  0  0  0  0  0  0  0  0
   -0.7645    8.2149   -2.2203 C   0  0  0  0  0  0  0  0  0  0  0  0
   -2.1220    8.5856   -2.1592 C   0  0  0  0  0  0  0  0  0  0  0  0
   -2.7614    9.1597   -0.9908 C   0  0  0  0  0  0  0  0  0  0  0  0
   -2.5383    8.5595    0.6259 S   0  0  0  0  0  0  0  0  0  0  0  0
   -3.6891    9.6677    1.2873 C   0  0  0  0  0  0  0  0  0  0  0  0
   -3.9589    9.7232    2.7502 C   0  0  0  0  0  0  0  0  0  0  0  0
   -2.9857   10.6752    3.4502 C   0  0  0  0  0  0  0  0  0  0  0  0
   -4.2023   10.4592    0.3033 C   0  0  0  0  0  0  0  0  0  0  0  0
   -5.3635   11.6917    0.5776 Cl  0  0  0  0  0  0  0  0  0  0  0  0
   -3.6931   10.1644   -0.9882 C   0  0  0  0  0  0  0  0  0  0  0  0
   -4.1610   11.0436   -2.3826 Cl  0  0  0  0  0  0  0  0  0  0  0  0
   -2.9097    8.1801   -3.2324 C   0  0  0  0  0  0  0  0  0  0  0  0
   -2.3762    7.6323   -4.4191 C   0  0  0  0  0  0  0  0  0  0  0  0
   -0.9821    7.4881   -4.5744 C   0  0  0  0  0  0  0  0  0  0  0  0
   -0.4610    6.9401   -5.8067 C   0  0  0  0  0  0  0  0  0  0  0  0
    0.7342    5.6757   -5.8503 S   0  0  0  0  0  0  0  0  0  0  0  0
    0.6699    5.5655   -7.5757 C   0  0  0  0  0  0  0  0  0  0  0  0
    1.4793    4.5603   -8.3176 C   0  0  0  0  0  0  0  0  0  0  0  0
    0.7131    3.2443   -8.4719 C   0  0  0  0  0  0  0  0  0  0  0  0
   -0.2290    6.4603   -8.0775 C   0  0  0  0  0  0  0  0  0  0  0  0
   -0.8701    7.2405   -7.0821 C   0  0  0  0  0  0  0  0  0  0  0  0
   -1.9879    8.4826   -7.4692 Cl  0  0  0  0  0  0  0  0  0  0  0  0
   -0.5655    6.6391   -9.7501 Cl  0  0  0  0  0  0  0  0  0  0  0  0
   -0.2311    7.6768   -3.4182 C   0  0  0  0  0  0  0  0  0  0  0  0
    1.3573    7.0136   -3.1603 S   0  0  0  0  0  0  0  0  0  0  0  0
   -3.3317    6.8553   -5.1222 C   0  0  0  0  0  0  0  0  0  0  0  0
   -4.5097    6.7150   -4.4440 C   0  0  0  0  0  0  0  0  0  0  0  0
   -4.6194    7.8310   -3.0932 S   0  0  0  0  0  0  0  0  0  0  0  0
   -5.1408    5.4234   -4.3806 C   0  0  0  0  0  0  0  0  0  0  0  0
   -5.2031    4.4470   -5.3289 C   0  0  0  0  0  0  0  0  0  0  0  0
   -5.1096    3.1338   -4.7899 C   0  0  0  0  0  0  0  0  0  0  0  0
   -4.9363    1.9174   -5.4711 C   0  0  0  0  0  0  0  0  0  0  0  0
   -4.8057    1.8908   -6.9208 C   0  0  0  0  0  0  0  0  0  0  0  0
   -5.7936    0.9019   -7.9489 S   0  0  0  0  0  0  0  0  0  0  0  0
   -4.9708    1.4310   -9.3782 C   0  0  0  0  0  0  0  0  0  0  0  0
   -5.3949    0.9711  -10.7291 C   0  0  0  0  0  0  0  0  0  0  0  0
   -6.4927    1.8750  -11.2956 C   0  0  0  0  0  0  0  0  0  0  0  0
   -3.9904    2.3227   -9.0592 C   0  0  0  0  0  0  0  0  0  0  0  0
   -2.9593    3.0714  -10.2091 Cl  0  0  0  0  0  0  0  0  0  0  0  0
   -3.8886    2.5786   -7.6662 C   0  0  0  0  0  0  0  0  0  0  0  0
   -2.6727    3.5925   -6.9981 Cl  0  0  0  0  0  0  0  0  0  0  0  0
   -4.7379    0.7786   -4.6991 C   0  0  0  0  0  0  0  0  0  0  0  0
   -4.5470    0.8203   -3.2968 C   0  0  0  0  0  0  0  0  0  0  0  0
   -4.6062    2.0540   -2.6284 C   0  0  0  0  0  0  0  0  0  0  0  0
   -4.0727    2.2482   -1.2863 C   0  0  0  0  0  0  0  0  0  0  0  0
   -4.6659    1.4593    0.1379 S   0  0  0  0  0  0  0  0  0  0  0  0
   -3.4960    2.2344    1.1535 C   0  0  0  0  0  0  0  0  0  0  0  0
   -3.4840    1.9992    2.6224 C   0  0  0  0  0  0  0  0  0  0  0  0
   -4.6377    2.7333    3.3077 C   0  0  0  0  0  0  0  0  0  0  0  0
   -2.7001    3.0579    0.4153 C   0  0  0  0  0  0  0  0  0  0  0  0
   -3.0148    3.0575   -0.9685 C   0  0  0  0  0  0  0  0  0  0  0  0
   -2.0858    3.9454   -2.1101 Cl  0  0  0  0  0  0  0  0  0  0  0  0
   -1.4312    4.0261    1.0552 Cl  0  0  0  0  0  0  0  0  0  0  0  0
   -4.9840    3.1555   -3.3793 C   0  0  0  0  0  0  0  0  0  0  0  0
   -5.1538    4.7610   -2.7461 S   0  0  0  0  0  0  0  0  0  0  0  0
   -4.1827   -0.4396   -2.7699 C   0  0  0  0  0  0  0  0  0  0  0  0
   -4.1000   -1.4331   -3.7049 C   0  0  0  0  0  0  0  0  0  0  0  0
   -4.4814   -0.8309   -5.3128 S   0  0  0  0  0  0  0  0  0  0  0  0
   -3.7423   -2.7860   -3.4363 C   0  0  0  0  0  0  0  0  0  0  0  0
   -3.1956   -3.1880   -1.8356 S   0  0  0  0  0  0  0  0  0  0  0  0
   -3.0229   -4.8704   -2.2539 C   0  0  0  0  0  0  0  0  0  0  0  0
   -3.3961   -5.0888   -3.5703 C   0  0  0  0  0  0  0  0  0  0  0  0
   -3.7680   -3.9088   -4.2440 C   0  0  0  0  0  0  0  0  0  0  0  0
   -4.1663   -3.8849   -5.6867 C   0  0  0  0  0  0  0  0  0  0  0  0
   -3.7910   -5.1926   -6.3798 C   0  0  0  0  0  0  0  0  0  0  0  0
   -4.3402   -5.3402   -7.7902 C   0  0  0  0  0  0  0  0  0  0  0  0
   -3.6882   -5.8757   -8.6510 O   0  0  0  0  0  0  0  0  0  0  0  0
   -5.7331   -4.8266   -8.0410 C   0  0  0  0  0  0  0  0  0  0  0  0
   -4.2738   -6.3700   -5.5234 C   0  0  0  0  0  0  0  0  0  0  0  0
   -3.4574   -6.4291   -4.2345 C   0  0  0  0  0  0  0  0  0  0  0  0
   -2.5404   -5.7259   -1.2234 C   0  0  0  0  0  0  0  0  0  0  0  0
   -2.2074   -7.0328   -1.2929 C   0  0  0  0  0  0  0  0  0  0  0  0
   -1.7339   -7.7748   -0.1705 C   0  0  0  0  0  0  0  0  0  0  0  0
   -1.4427   -9.1094   -0.1356 C   0  0  0  0  0  0  0  0  0  0  0  0
   -1.0006   -9.5670    1.1299 C   0  0  0  0  0  0  0  0  0  0  0  0
   -0.6038  -10.8640    1.4961 C   0  0  0  0  0  0  0  0  0  0  0  0
   -0.6392  -11.9689    0.5527 C   0  0  0  0  0  0  0  0  0  0  0  0
   -2.0957  -12.3856   -0.3023 S   0  0  0  0  0  0  0  0  0  0  0  0
   -1.3441  -13.7313   -1.0899 C   0  0  0  0  0  0  0  0  0  0  0  0
   -2.0883  -14.5614   -2.0767 C   0  0  0  0  0  0  0  0  0  0  0  0
   -2.0895  -13.9015   -3.4576 C   0  0  0  0  0  0  0  0  0  0  0  0
   -0.0383  -13.8292   -0.7135 C   0  0  0  0  0  0  0  0  0  0  0  0
    1.0375  -15.0333   -1.2944 Cl  0  0  0  0  0  0  0  0  0  0  0  0
    0.3631  -12.8375    0.2220 C   0  0  0  0  0  0  0  0  0  0  0  0
    1.9727  -12.7132    0.7967 Cl  0  0  0  0  0  0  0  0  0  0  0  0
   -0.1982  -11.0525    2.8125 C   0  0  0  0  0  0  0  0  0  0  0  0
   -0.1321  -10.0007    3.7566 C   0  0  0  0  0  0  0  0  0  0  0  0
   -0.4707   -8.6925    3.3753 C   0  0  0  0  0  0  0  0  0  0  0  0
   -0.3036   -7.5754    4.2910 C   0  0  0  0  0  0  0  0  0  0  0  0
   -1.5733   -6.4279    4.5870 S   0  0  0  0  0  0  0  0  0  0  0  0
   -0.5862   -5.4909    5.6555 C   0  0  0  0  0  0  0  0  0  0  0  0
   -1.1231   -4.2769    6.3279 C   0  0  0  0  0  0  0  0  0  0  0  0
   -2.0643   -4.6492    7.4745 C   0  0  0  0  0  0  0  0  0  0  0  0
    0.6481   -6.0556    5.7773 C   0  0  0  0  0  0  0  0  0  0  0  0
    0.8144   -7.2345    5.0028 C   0  0  0  0  0  0  0  0  0  0  0  0
    2.3088   -8.0781    4.9293 Cl  0  0  0  0  0  0  0  0  0  0  0  0
    1.9070   -5.4199    6.7581 Cl  0  0  0  0  0  0  0  0  0  0  0  0
   -0.9374   -8.5157    2.0777 C   0  0  0  0  0  0  0  0  0  0  0  0
   -1.4561   -7.0078    1.3820 S   0  0  0  0  0  0  0  0  0  0  0  0
    0.2366  -10.4774    5.0482 C   0  0  0  0  0  0  0  0  0  0  0  0
    0.4439  -11.8094    5.0744 C   0  0  0  0  0  0  0  0  0  0  0  0
    0.2140  -12.5779    3.5429 S   0  0  0  0  0  0  0  0  0  0  0  0
    6.8197   -6.4553    8.3551 H   0  0  0  0  0  0  0  0  0  0  0  0
    7.6894   -4.0207    8.6448 H   0  0  0  0  0  0  0  0  0  0  0  0
   10.0064    1.3145   10.4388 H   0  0  0  0  0  0  0  0  0  0  0  0
    8.2784    1.5828   10.7324 H   0  0  0  0  0  0  0  0  0  0  0  0
    9.8549    2.6887    8.3585 H   0  0  0  0  0  0  0  0  0  0  0  0
    9.3196    3.6150    9.7643 H   0  0  0  0  0  0  0  0  0  0  0  0
    8.1306    2.9382    8.6450 H   0  0  0  0  0  0  0  0  0  0  0  0
    1.3813   -7.2093    1.9299 H   0  0  0  0  0  0  0  0  0  0  0  0
    3.0988   -7.5528    1.6863 H   0  0  0  0  0  0  0  0  0  0  0  0
    3.1720   -5.8131   -0.1157 H   0  0  0  0  0  0  0  0  0  0  0  0
    1.9703   -7.0607   -0.4687 H   0  0  0  0  0  0  0  0  0  0  0  0
    1.4541   -5.4862    0.1391 H   0  0  0  0  0  0  0  0  0  0  0  0
    3.8404   -1.5785    3.1415 H   0  0  0  0  0  0  0  0  0  0  0  0
    5.5070    2.8444    3.9359 H   0  0  0  0  0  0  0  0  0  0  0  0
    8.3622    8.0903    3.0787 H   0  0  0  0  0  0  0  0  0  0  0  0
    8.1315    8.1278    4.8377 H   0  0  0  0  0  0  0  0  0  0  0  0
    6.4649    9.6889    2.8002 H   0  0  0  0  0  0  0  0  0  0  0  0
    6.2511    9.7396    4.5529 H   0  0  0  0  0  0  0  0  0  0  0  0
    7.7325   10.3706    3.8265 H   0  0  0  0  0  0  0  0  0  0  0  0
   -1.8812    0.5700   -2.9061 H   0  0  0  0  0  0  0  0  0  0  0  0
   -0.5147    1.1946   -3.8446 H   0  0  0  0  0  0  0  0  0  0  0  0
   -0.6802   -1.5845   -2.5715 H   0  0  0  0  0  0  0  0  0  0  0  0
    0.6838   -0.9778   -3.5167 H   0  0  0  0  0  0  0  0  0  0  0  0
   -0.8870   -1.2258   -4.2877 H   0  0  0  0  0  0  0  0  0  0  0  0
    0.9657    4.6675   -1.2768 H   0  0  0  0  0  0  0  0  0  0  0  0
   -0.1228    8.3025   -0.1091 H   0  0  0  0  0  0  0  0  0  0  0  0
   -4.9824   10.0705    2.9041 H   0  0  0  0  0  0  0  0  0  0  0  0
   -3.8595    8.7232    3.1754 H   0  0  0  0  0  0  0  0  0  0  0  0
   -1.9610   10.3397    3.3084 H   0  0  0  0  0  0  0  0  0  0  0  0
   -3.1980   10.7085    4.5153 H   0  0  0  0  0  0  0  0  0  0  0  0
   -3.0830   11.6787    3.0438 H   0  0  0  0  0  0  0  0  0  0  0  0
    1.7165    4.9603   -9.3055 H   0  0  0  0  0  0  0  0  0  0  0  0
    2.4103    4.3791   -7.7780 H   0  0  0  0  0  0  0  0  0  0  0  0
   -0.2106    3.4084   -9.0203 H   0  0  0  0  0  0  0  0  0  0  0  0
    1.3166    2.5221   -9.0152 H   0  0  0  0  0  0  0  0  0  0  0  0
    0.4693    2.8328   -7.4952 H   0  0  0  0  0  0  0  0  0  0  0  0
   -3.0757    6.2328   -5.9599 H   0  0  0  0  0  0  0  0  0  0  0  0
   -5.2483    4.6556   -6.3818 H   0  0  0  0  0  0  0  0  0  0  0  0
   -4.5289    0.9890  -11.3934 H   0  0  0  0  0  0  0  0  0  0  0  0
   -5.7647   -0.0533  -10.6634 H   0  0  0  0  0  0  0  0  0  0  0  0
   -7.3650    1.8624  -10.6463 H   0  0  0  0  0  0  0  0  0  0  0  0
   -6.7870    1.5300  -12.2830 H   0  0  0  0  0  0  0  0  0  0  0  0
   -6.1342    2.8979  -11.3769 H   0  0  0  0  0  0  0  0  0  0  0  0
   -3.5678    0.9278    2.8177 H   0  0  0  0  0  0  0  0  0  0  0  0
   -2.5311    2.3506    3.0214 H   0  0  0  0  0  0  0  0  0  0  0  0
   -4.5617    3.8034    3.1299 H   0  0  0  0  0  0  0  0  0  0  0  0
   -4.6095    2.5548    4.3792 H   0  0  0  0  0  0  0  0  0  0  0  0
   -5.5916    2.3833    2.9198 H   0  0  0  0  0  0  0  0  0  0  0  0
   -3.9983   -0.6103   -1.7248 H   0  0  0  0  0  0  0  0  0  0  0  0
   -5.2433   -3.7092   -5.7468 H   0  0  0  0  0  0  0  0  0  0  0  0
   -3.6709   -3.0506   -6.1894 H   0  0  0  0  0  0  0  0  0  0  0  0
   -2.7002   -5.2625   -6.4573 H   0  0  0  0  0  0  0  0  0  0  0  0
   -5.7141   -3.7383   -8.0670 H   0  0  0  0  0  0  0  0  0  0  0  0
   -6.4116   -5.1419   -7.2528 H   0  0  0  0  0  0  0  0  0  0  0  0
   -6.0877   -5.1928   -9.0009 H   0  0  0  0  0  0  0  0  0  0  0  0
   -5.3310   -6.2373   -5.2842 H   0  0  0  0  0  0  0  0  0  0  0  0
   -4.1610   -7.3069   -6.0712 H   0  0  0  0  0  0  0  0  0  0  0  0
   -3.9095   -7.1525   -3.5519 H   0  0  0  0  0  0  0  0  0  0  0  0
   -2.4419   -6.7690   -4.4614 H   0  0  0  0  0  0  0  0  0  0  0  0
   -2.4163   -5.2338   -0.2649 H   0  0  0  0  0  0  0  0  0  0  0  0
   -2.2790   -7.5921   -2.2120 H   0  0  0  0  0  0  0  0  0  0  0  0
   -1.5435   -9.7498   -0.9929 H   0  0  0  0  0  0  0  0  0  0  0  0
   -3.1171  -14.6941   -1.7372 H   0  0  0  0  0  0  0  0  0  0  0  0
   -1.6107  -15.5406   -2.1392 H   0  0  0  0  0  0  0  0  0  0  0  0
   -2.5687  -12.9265   -3.4091 H   0  0  0  0  0  0  0  0  0  0  0  0
   -1.0706  -13.7719   -3.8139 H   0  0  0  0  0  0  0  0  0  0  0  0
   -2.6304  -14.5214   -4.1673 H   0  0  0  0  0  0  0  0  0  0  0  0
   -1.6626   -3.6703    5.5975 H   0  0  0  0  0  0  0  0  0  0  0  0
   -0.2847   -3.6934    6.7117 H   0  0  0  0  0  0  0  0  0  0  0  0
   -2.4461   -3.7503    7.9511 H   0  0  0  0  0  0  0  0  0  0  0  0
   -1.5367   -5.2405    8.2189 H   0  0  0  0  0  0  0  0  0  0  0  0
   -2.9038   -5.2301    7.0995 H   0  0  0  0  0  0  0  0  0  0  0  0
    0.3165   -9.8449    5.9125 H   0  0  0  0  0  0  0  0  0  0  0  0
    0.7238  -12.4161    5.9133 H   0  0  0  0  0  0  0  0  0  0  0  0
  1  2  2  0  0  0  0
  2  3  1  0  0  0  0
  3  4  2  0  0  0  0
  4  5  1  0  0  0  0
  5  6  1  0  0  0  0
  6  7  1  0  0  0  0
  7  8  1  0  0  0  0
  8  9  1  0  0  0  0
  7 10  2  0  0  0  0
 10 11  1  0  0  0  0
 10 12  1  0  0  0  0
 12 13  1  0  0  0  0
  4 14  1  0  0  0  0
 14 15  2  0  0  0  0
 15 16  1  0  0  0  0
 16 17  1  0  0  0  0
 17 18  1  0  0  0  0
 18 19  1  0  0  0  0
 19 20  1  0  0  0  0
 20 21  1  0  0  0  0
 19 22  2  0  0  0  0
 22 23  1  0  0  0  0
 23 24  1  0  0  0  0
 22 25  1  0  0  0  0
 16 26  2  0  0  0  0
 26 27  1  0  0  0  0
 15 28  1  0  0  0  0
 28 29  2  0  0  0  0
 29 30  1  0  0  0  0
 29 31  1  0  0  0  0
 31 32  2  0  0  0  0
 32 33  1  0  0  0  0
 33 34  2  0  0  0  0
 34 35  1  0  0  0  0
 35 36  1  0  0  0  0
 36 37  1  0  0  0  0
 37 38  1  0  0  0  0
 38 39  1  0  0  0  0
 37 40  2  0  0  0  0
 40 41  1  0  0  0  0
 40 42  1  0  0  0  0
 42 43  1  0  0  0  0
 34 44  1  0  0  0  0
 44 45  2  0  0  0  0
 45 46  1  0  0  0  0
 46 47  1  0  0  0  0
 47 48  1  0  0  0  0
 48 49  1  0  0  0  0
 49 50  1  0  0  0  0
 50 51  1  0  0  0  0
 49 52  2  0  0  0  0
 52 53  1  0  0  0  0
 53 54  1  0  0  0  0
 52 55  1  0  0  0  0
 46 56  2  0  0  0  0
 56 57  1  0  0  0  0
 45 58  1  0  0  0  0
 58 59  2  0  0  0  0
 59 60  1  0  0  0  0
 59 61  1  0  0  0  0
 61 62  2  0  0  0  0
 62 63  1  0  0  0  0
 63 64  2  0  0  0  0
 64 65  1  0  0  0  0
 65 66  1  0  0  0  0
 66 67  1  0  0  0  0
 67 68  1  0  0  0  0
 68 69  1  0  0  0  0
 67 70  2  0  0  0  0
 70 71  1  0  0  0  0
 70 72  1  0  0  0  0
 72 73  1  0  0  0  0
 64 74  1  0  0  0  0
 74 75  2  0  0  0  0
 75 76  1  0  0  0  0
 76 77  1  0  0  0  0
 77 78  1  0  0  0  0
 78 79  1  0  0  0  0
 79 80  1  0  0  0  0
 80 81  1  0  0  0  0
 79 82  2  0  0  0  0
 82 83  1  0  0  0  0
 83 84  1  0  0  0  0
 82 85  1  0  0  0  0
 76 86  2  0  0  0  0
 86 87  1  0  0  0  0
 75 88  1  0  0  0  0
 88 89  2  0  0  0  0
 89 90  1  0  0  0  0
 89 91  1  0  0  0  0
 91 92  2  0  0  0  0
 92 93  1  0  0  0  0
 93 94  2  0  0  0  0
 94 95  1  0  0  0  0
 95 96  1  0  0  0  0
 96 97  1  0  0  0  0
 97 98  1  0  0  0  0
 98 99  1  0  0  0  0
 97100  2  0  0  0  0
100101  1  0  0  0  0
100102  1  0  0  0  0
102103  1  0  0  0  0
 94104  1  0  0  0  0
104105  2  0  0  0  0
105106  1  0  0  0  0
106107  1  0  0  0  0
107108  1  0  0  0  0
108109  1  0  0  0  0
109110  1  0  0  0  0
110111  1  0  0  0  0
109112  2  0  0  0  0
112113  1  0  0  0  0
113114  1  0  0  0  0
112115  1  0  0  0  0
106116  2  0  0  0  0
116117  1  0  0  0  0
105118  1  0  0  0  0
118119  2  0  0  0  0
119120  1  0  0  0  0
119121  1  0  0  0  0
121122  1  0  0  0  0
122123  1  0  0  0  0
123124  2  0  0  0  0
124125  1  0  0  0  0
125126  1  0  0  0  0
126127  1  0  0  0  0
127128  1  0  0  0  0
128129  2  0  0  0  0
128130  1  0  0  0  0
127131  1  0  0  0  0
131132  1  0  0  0  0
123133  1  0  0  0  0
133134  2  0  0  0  0
134135  1  0  0  0  0
135136  2  0  0  0  0
136137  1  0  0  0  0
137138  2  0  0  0  0
138139  1  0  0  0  0
139140  1  0  0  0  0
140141  1  0  0  0  0
141142  1  0  0  0  0
142143  1  0  0  0  0
141144  2  0  0  0  0
144145  1  0  0  0  0
144146  1  0  0  0  0
146147  1  0  0  0  0
138148  1  0  0  0  0
148149  2  0  0  0  0
149150  1  0  0  0  0
150151  1  0  0  0  0
151152  1  0  0  0  0
152153  1  0  0  0  0
153154  1  0  0  0  0
154155  1  0  0  0  0
153156  2  0  0  0  0
156157  1  0  0  0  0
157158  1  0  0  0  0
156159  1  0  0  0  0
150160  2  0  0  0  0
160161  1  0  0  0  0
149162  1  0  0  0  0
162163  2  0  0  0  0
163164  1  0  0  0  0
 27  1  1  0  0  0  0
 57 31  1  0  0  0  0
 87 61  1  0  0  0  0
117 91  1  0  0  0  0
125121  2  0  0  0  0
161135  1  0  0  0  0
 26  3  1  0  0  0  0
 56 33  1  0  0  0  0
 86 63  1  0  0  0  0
116 93  1  0  0  0  0
132124  1  0  0  0  0
160137  1  0  0  0  0
 12  5  2  0  0  0  0
 30 14  1  0  0  0  0
 42 35  2  0  0  0  0
 60 44  1  0  0  0  0
 72 65  2  0  0  0  0
 90 74  1  0  0  0  0
102 95  2  0  0  0  0
120104  1  0  0  0  0
146139  2  0  0  0  0
164148  1  0  0  0  0
 23 17  2  0  0  0  0
 53 47  2  0  0  0  0
 83 77  2  0  0  0  0
113107  2  0  0  0  0
157151  2  0  0  0  0
  1165  1  0  0  0  0
  2166  1  0  0  0  0
  8167  1  0  0  0  0
  8168  1  0  0  0  0
  9169  1  0  0  0  0
  9170  1  0  0  0  0
  9171  1  0  0  0  0
 20172  1  0  0  0  0
 20173  1  0  0  0  0
 21174  1  0  0  0  0
 21175  1  0  0  0  0
 21176  1  0  0  0  0
 28177  1  0  0  0  0
 32178  1  0  0  0  0
 38179  1  0  0  0  0
 38180  1  0  0  0  0
 39181  1  0  0  0  0
 39182  1  0  0  0  0
 39183  1  0  0  0  0
 50184  1  0  0  0  0
 50185  1  0  0  0  0
 51186  1  0  0  0  0
 51187  1  0  0  0  0
 51188  1  0  0  0  0
 58189  1  0  0  0  0
 62190  1  0  0  0  0
 68191  1  0  0  0  0
 68192  1  0  0  0  0
 69193  1  0  0  0  0
 69194  1  0  0  0  0
 69195  1  0  0  0  0
 80196  1  0  0  0  0
 80197  1  0  0  0  0
 81198  1  0  0  0  0
 81199  1  0  0  0  0
 81200  1  0  0  0  0
 88201  1  0  0  0  0
 92202  1  0  0  0  0
 98203  1  0  0  0  0
 98204  1  0  0  0  0
 99205  1  0  0  0  0
 99206  1  0  0  0  0
 99207  1  0  0  0  0
110208  1  0  0  0  0
110209  1  0  0  0  0
111210  1  0  0  0  0
111211  1  0  0  0  0
111212  1  0  0  0  0
118213  1  0  0  0  0
126214  1  0  0  0  0
126215  1  0  0  0  0
127216  1  0  0  0  0
130217  1  0  0  0  0
130218  1  0  0  0  0
130219  1  0  0  0  0
131220  1  0  0  0  0
131221  1  0  0  0  0
132222  1  0  0  0  0
132223  1  0  0  0  0
133224  1  0  0  0  0
134225  1  0  0  0  0
136226  1  0  0  0  0
142227  1  0  0  0  0
142228  1  0  0  0  0
143229  1  0  0  0  0
143230  1  0  0  0  0
143231  1  0  0  0  0
154232  1  0  0  0  0
154233  1  0  0  0  0
155234  1  0  0  0  0
155235  1  0  0  0  0
155236  1  0  0  0  0
162237  1  0  0  0  0
163238  1  0  0  0  0
M  END
