238

C          6.56060       -5.60550        7.75420
C          7.00360       -4.33790        7.88130
C          6.45170       -3.45850        6.90470
C          6.66540       -2.07810        6.75520
C          7.60900       -1.35550        7.59280
S          7.13770        0.07840        8.45390
C          8.72690        0.30570        9.10100
C          9.04150        1.48170        9.95790
C          9.08980        2.76550        9.12690
C          9.56310       -0.67560        8.65950
Cl        11.22480       -0.78320        9.07660
C          8.93190       -1.62230        7.80800
Cl         9.78610       -2.91490        7.06800
C          5.94620       -1.43130        5.75890
C          5.05710       -2.11460        4.89680
C          4.82880       -3.49140        5.05330
C          3.86100       -4.16790        4.20830
S          4.25930       -5.60370        3.31610
C          2.68900       -5.69140        2.59820
C          2.33790       -6.77280        1.63590
C          2.22760       -6.24660        0.20420
C          1.91130       -4.65950        3.03460
C          2.56840       -3.79860        3.95050
Cl         1.76060       -2.48850        4.70820
Cl         0.29460       -4.38500        2.53300
C          5.55020       -4.13700        6.04860
S          5.43800       -5.82400        6.45820
C          4.50660       -1.25370        3.91970
C          4.90900        0.04230        4.04150
S          6.03870        0.26530        5.36070
C          4.43230        1.12560        3.24660
C          4.74710        2.45080        3.28580
C          3.98640        3.23790        2.38160
C          4.05240        4.62590        2.15600
C          4.90840        5.47540        2.96470
S          6.02650        6.59020        2.23680
C          6.60280        7.13680        3.77370
C          7.62560        8.21370        3.87440
C          6.97550        9.59430        3.75550
C          5.94660        6.49540        4.78180
Cl         6.24000        6.77990        6.44850
C          4.98900        5.54940        4.32860
Cl         3.98610        4.66630        5.40690
C          3.26150        5.13680        1.13220
C          2.39290        4.32660        0.36480
C          2.25770        2.95700        0.64110
C          1.28600        2.12800       -0.05270
S          1.16510        2.10830       -1.78840
C         -0.15540        0.99460       -1.77140
C         -0.79650        0.52500       -3.03050
C         -0.39170       -0.90970       -3.37300
C         -0.46400        0.65320       -0.48870
C          0.34550        1.29140        0.48670
Cl         0.06380        1.08200        2.16160
Cl        -1.71410       -0.43920       -0.06260
C          3.08040        2.44450        1.63430
S          3.18700        0.77010        2.06890
C          1.68400        5.08510       -0.59590
C          1.96050        6.41410       -0.56150
S          3.13800        6.81730        0.66090
C          1.22000        7.30200       -1.43520
C          0.11760        8.02770       -1.11920
C         -0.76450        8.21490       -2.22030
C         -2.12200        8.58560       -2.15920
C         -2.76140        9.15970       -0.99080
S         -2.53830        8.55950        0.62590
C         -3.68910        9.66770        1.28730
C         -3.95890        9.72320        2.75020
C         -2.98570       10.67520        3.45020
C         -4.20230       10.45920        0.30330
Cl        -5.36350       11.69170        0.57760
C         -3.69310       10.16440       -0.98820
Cl        -4.16100       11.04360       -2.38260
C         -2.90970        8.18010       -3.23240
C         -2.37620        7.63230       -4.41910
C         -0.98210        7.48810       -4.57440
C         -0.46100        6.94010       -5.80670
S          0.73420        5.67570       -5.85030
C          0.66990        5.56550       -7.57570
C          1.47930        4.56030       -8.31760
C          0.71310        3.24430       -8.47190
C         -0.22900        6.46030       -8.07750
C         -0.87010        7.24050       -7.08210
Cl        -1.98790        8.48260       -7.46920
Cl        -0.56550        6.63910       -9.75010
C         -0.23110        7.67680       -3.41820
S          1.35730        7.01360       -3.16030
C         -3.33170        6.85530       -5.12220
C         -4.50970        6.71500       -4.44400
S         -4.61940        7.83100       -3.09320
C         -5.14080        5.42340       -4.38060
C         -5.20310        4.44700       -5.32890
C         -5.10960        3.13380       -4.78990
C         -4.93630        1.91740       -5.47110
C         -4.80570        1.89080       -6.92080
S         -5.79360        0.90190       -7.94890
C         -4.97080        1.43100       -9.37820
C         -5.39490        0.97110      -10.72910
C         -6.49270        1.87500      -11.29560
C         -3.99040        2.32270       -9.05920
Cl        -2.95930        3.07140      -10.20910
C         -3.88860        2.57860       -7.66620
Cl        -2.67270        3.59250       -6.99810
C         -4.73790        0.77860       -4.69910
C         -4.54700        0.82030       -3.29680
C         -4.60620        2.05400       -2.62840
C         -4.07270        2.24820       -1.28630
S         -4.66590        1.45930        0.13790
C         -3.49600        2.23440        1.15350
C         -3.48400        1.99920        2.62240
C         -4.63770        2.73330        3.30770
C         -2.70010        3.05790        0.41530
C         -3.01480        3.05750       -0.96850
Cl        -2.08580        3.94540       -2.11010
Cl        -1.43120        4.02610        1.05520
C         -4.98400        3.15550       -3.37930
S         -5.15380        4.76100       -2.74610
C         -4.18270       -0.43960       -2.76990
C         -4.10000       -1.43310       -3.70490
S         -4.48140       -0.83090       -5.31280
C         -3.74230       -2.78600       -3.43630
S         -3.19560       -3.18800       -1.83560
C         -3.02290       -4.87040       -2.25390
C         -3.39610       -5.08880       -3.57030
C         -3.76800       -3.90880       -4.24400
C         -4.16630       -3.88490       -5.68670
C         -3.79100       -5.19260       -6.37980
C         -4.34020       -5.34020       -7.79020
O         -3.68820       -5.87570       -8.65100
C         -5.73310       -4.82660       -8.04100
C         -4.27380       -6.37000       -5.52340
C         -3.45740       -6.42910       -4.23450
C         -2.54040       -5.72590       -1.22340
C         -2.20740       -7.03280       -1.29290
C         -1.73390       -7.77480       -0.17050
C         -1.44270       -9.10940       -0.13560
C         -1.00060       -9.56700        1.12990
C         -0.60380      -10.86400        1.49610
C         -0.63920      -11.96890        0.55270
S         -2.09570      -12.38560       -0.30230
C         -1.34410      -13.73130       -1.08990
C         -2.08830      -14.56140       -2.07670
C         -2.08950      -13.90150       -3.45760
C         -0.03830      -13.82920       -0.71350
Cl         1.03750      -15.03330       -1.29440
C          0.36310      -12.83750        0.22200
Cl         1.97270      -12.71320        0.79670
C         -0.19820      -11.05250        2.81250
C         -0.13210      -10.00070        3.75660
C         -0.47070       -8.69250        3.37530
C         -0.30360       -7.57540        4.29100
S         -1.57330       -6.42790        4.58700
C         -0.58620       -5.49090        5.65550
C         -1.12310       -4.27690        6.32790
C         -2.06430       -4.64920        7.47450
C          0.64810       -6.05560        5.77730
C          0.81440       -7.23450        5.00280
Cl         2.30880       -8.07810        4.92930
Cl         1.90700       -5.41990        6.75810
C         -0.93740       -8.51570        2.07770
S         -1.45610       -7.00780        1.38200
C          0.23660      -10.47740        5.04820
C          0.44390      -11.80940        5.07440
S          0.21400      -12.57790        3.54290
H          6.81970       -6.45530        8.35510
H          7.68940       -4.02070        8.64480
H         10.00640        1.31450       10.43880
H          8.27840        1.58280       10.73240
H          9.85490        2.68870        8.35850
H          9.31960        3.61500        9.76430
H          8.13060        2.93820        8.64500
H          1.38130       -7.20930        1.92990
H          3.09880       -7.55280        1.68630
H          3.17200       -5.81310       -0.11570
H          1.97030       -7.06070       -0.46870
H          1.45410       -5.48620        0.13910
H          3.84040       -1.57850        3.14150
H          5.50700        2.84440        3.93590
H          8.36220        8.09030        3.07870
H          8.13150        8.12780        4.83770
H          6.46490        9.68890        2.80020
H          6.25110        9.73960        4.55290
H          7.73250       10.37060        3.82650
H         -1.88120        0.57000       -2.90610
H         -0.51470        1.19460       -3.84460
H         -0.68020       -1.58450       -2.57150
H          0.68380       -0.97780       -3.51670
H         -0.88700       -1.22580       -4.28770
H          0.96570        4.66750       -1.27680
H         -0.12280        8.30250       -0.10910
H         -4.98240       10.07050        2.90410
H         -3.85950        8.72320        3.17540
H         -1.96100       10.33970        3.30840
H         -3.19800       10.70850        4.51530
H         -3.08300       11.67870        3.04380
H          1.71650        4.96030       -9.30550
H          2.41030        4.37910       -7.77800
H         -0.21060        3.40840       -9.02030
H          1.31660        2.52210       -9.01520
H          0.46930        2.83280       -7.49520
H         -3.07570        6.23280       -5.95990
H         -5.24830        4.65560       -6.38180
H         -4.52890        0.98900      -11.39340
H         -5.76470       -0.05330      -10.66340
H         -7.36500        1.86240      -10.64630
H         -6.78700        1.53000      -12.28300
H         -6.13420        2.89790      -11.37690
H         -3.56780        0.92780        2.81770
H         -2.53110        2.35060        3.02140
H         -4.56170        3.80340        3.12990
H         -4.60950        2.55480        4.37920
H         -5.59160        2.38330        2.91980
H         -3.99830       -0.61030       -1.72480
H         -5.24330       -3.70920       -5.74680
H         -3.67090       -3.05060       -6.18940
H         -2.70020       -5.26250       -6.45730
H         -5.71410       -3.73830       -8.06700
H         -6.41160       -5.14190       -7.25280
H         -6.08770       -5.19280       -9.00090
H         -5.33100       -6.23730       -5.28420
H         -4.16100       -7.30690       -6.07120
H         -3.90950       -7.15250       -3.55190
H         -2.44190       -6.76900       -4.46140
H         -2.41630       -5.23380       -0.26490
H         -2.27900       -7.59210       -2.21200
H         -1.54350       -9.74980       -0.99290
H         -3.11710      -14.69410       -1.73720
H         -1.61070      -15.54060       -2.13920
H         -2.56870      -12.92650       -3.40910
H         -1.07060      -13.77190       -3.81390
H         -2.63040      -14.52140       -4.16730
H         -1.66260       -3.67030        5.59750
H         -0.28470       -3.69340        6.71170
H         -2.44610       -3.75030        7.95110
H         -1.53670       -5.24050        8.21890
H         -2.90380       -5.23010        7.09950
H          0.31650       -9.84490        5.91250
H          0.72380      -12.41610        5.91330
