220

C          3.34150       -5.69830        8.62800
C          4.31950       -4.77750        8.74190
C          3.96070       -3.51950        8.17640
C          4.72720       -2.34770        8.10490
C          6.10180       -2.31040        8.58000
S          6.63550       -1.14380        9.75030
C          8.25910       -1.74260        9.72020
C          9.33080       -1.09510       10.52520
C          9.84820        0.16480        9.82690
C          8.36750       -2.77900        8.84180
Cl         9.82900       -3.62510        8.52830
C          7.14430       -3.10670        8.19850
Cl         7.02880       -4.33590        7.00670
C          4.12690       -1.23260        7.53930
C          2.82160       -1.24820        6.98730
C          2.05480       -2.42400        7.05770
C          0.69180       -2.47960        6.54980
S          0.31200       -2.12150        4.89360
C         -1.37200       -2.43870        5.12190
C         -2.33370       -2.36570        3.98490
C         -2.85690       -3.75420        3.61260
C         -1.61400       -2.78920        6.41650
C         -0.44750       -2.81580        7.22690
Cl        -0.50190       -3.16640        8.90340
Cl        -3.17090       -3.14860        7.03840
C          2.64390       -3.53180        7.65760
S          1.92140       -5.10370        7.84290
C          2.45570        0.01650        6.46390
C          3.42190        0.96880        6.62180
S          4.86010        0.33650        7.39760
C          3.36110        2.33740        6.24250
S          4.48790        3.51410        6.83300
C          3.78780        4.78220        5.91990
C          2.73030        4.33770        5.16730
C          2.47960        2.93510        5.35170
N          1.55220        2.29300        4.60800
C          0.91870        2.99910        3.71710
C          1.05520        4.44740        3.63620
N          0.24300        5.15460        2.81230
C          0.25100        6.59630        2.80860
N          1.95110        5.08520        4.34540
N          0.09540        2.29600        2.83610
C         -0.36350        1.00350        3.30170
C          0.34980        2.45400        1.48890
C          0.29140        1.47980        0.56760
C          0.61530        1.67050       -0.80950
C          0.80520        0.67970       -1.72490
C          1.08060        1.14460       -3.02920
C          1.22060        0.37860       -4.19770
C          1.27200       -1.07370       -4.16790
S          0.03870       -2.03740       -3.41080
C          0.83470       -3.52010       -3.81740
C          0.25430       -4.83970       -3.44590
C         -0.77990       -5.29740       -4.47680
C          1.97370       -3.26560       -4.51960
Cl         3.03210       -4.48520       -5.09700
C          2.22210       -1.88120       -4.72430
Cl         3.61200       -1.29430       -5.53490
C          1.17780        1.06930       -5.39630
C          1.05990        2.47910       -5.48270
C          1.11980        3.25340       -4.30610
C          1.07040        4.70560       -4.31360
S         -0.14360        5.59610       -5.18660
C          0.44360        7.12060       -4.61200
C         -0.22350        8.39020       -5.01110
C         -1.65600        8.45450       -4.48050
C          1.51310        6.93430       -3.78950
C          1.86930        5.56940       -3.61570
Cl         3.22280        5.08810       -2.68140
Cl         2.37360        8.20820       -3.02570
C          1.09570        2.55640       -3.10220
S          0.83340        3.25810       -1.52660
C          0.60490        2.88460       -6.76260
C          0.27800        1.83580       -7.58050
S          0.87690        0.30590       -6.93490
C         -0.89520        1.79510       -8.39630
C         -1.65440        0.66290       -8.52230
C         -3.04150        0.90510       -8.37760
C         -3.96700       -0.06490       -7.93940
C         -3.69340       -1.46730       -8.15120
S         -3.91810       -2.68050       -6.92540
C         -3.36530       -3.94950       -7.96610
C         -3.35860       -5.36810       -7.51540
C         -4.74660       -5.99440       -7.66990
C         -3.04190       -3.45080       -9.19310
Cl        -2.47410       -4.41050      -10.49730
C         -3.21490       -2.04650       -9.29970
Cl        -2.92150       -1.19550      -10.75930
C         -5.01820        0.42020       -7.16620
C         -5.32320        1.79920       -7.07280
C         -4.53180        2.75680       -7.74780
C         -4.88180        4.16030       -7.70460
S         -3.72170        5.40390       -7.33730
C         -4.90710        6.66000       -7.47590
C         -4.54660        8.08840       -7.25450
C         -3.23530        8.45700       -7.94300
C         -6.12310        6.13140       -7.79270
C         -6.11530        4.71720       -7.91820
Cl        -7.50930        3.82680       -8.37310
Cl        -7.54560        7.06390       -8.02630
C         -3.33440        2.28480       -8.26940
S         -1.89450        3.24710       -8.52740
C         -6.24390        2.06630       -6.02840
C         -6.55920        0.96070       -5.29450
S         -5.90980       -0.50650       -5.99300
C         -7.09610        0.92340       -3.97150
S         -8.30460        2.01240       -3.37920
C         -8.07300        1.52250       -1.75000
C         -7.08570        0.57840       -1.64170
C         -6.53420        0.21780       -2.91650
N         -5.50900       -0.65390       -3.01250
C         -4.99470       -1.12020       -1.90580
C         -5.59880       -0.80790       -0.60850
N         -5.12560       -1.37780        0.53310
C         -5.85970       -1.24670        1.76910
N         -6.62260       -0.00150       -0.50460
N         -3.94700       -2.00920       -2.03200
C         -3.83240       -2.74910       -3.27330
C         -2.95120       -2.15300       -1.09430
C         -2.22440       -3.27760       -0.95300
C         -1.14000       -3.45370       -0.02740
C         -0.15490       -2.60130        0.36660
C          0.74230       -3.15310        1.32260
C          1.88660       -2.58090        1.90780
C          2.50380       -1.38010        1.36860
S          3.06950       -0.06070        2.35300
C          3.80070        0.73730        0.99980
C          4.58080        1.99550        1.16520
C          3.69200        3.23610        1.24180
C          3.58590        0.02680       -0.14400
Cl         4.14000        0.50510       -1.69770
C          2.86830       -1.18000        0.06460
Cl         2.62140       -2.32960       -1.18770
C          2.48780       -3.28880        2.94600
C          2.03800       -4.55980        3.37360
C          0.96210       -5.17370        2.71850
C          0.48070       -6.49320        3.10720
S          0.53660       -7.84880        2.02340
C         -0.19440       -8.90310        3.18600
C         -0.40470      -10.34710        2.89060
C          0.86820      -11.15310        3.16000
C         -0.45600       -8.22820        4.34050
C         -0.08000       -6.85820        4.29670
Cl        -0.36810       -5.76450        5.59050
Cl        -1.18210       -8.93660        5.72430
C          0.35230       -4.45980        1.70050
S         -1.00700       -5.01590        0.76880
C          2.84270       -5.08190        4.42690
C          3.84400       -4.25020        4.77740
S          3.88110       -2.78370        3.86140
H          3.35080       -6.71570        8.96710
H          5.26440       -4.96480        9.21760
H         10.14890       -1.80540       10.65700
H          8.93670       -0.82850       11.50750
H         10.62910        0.62850       10.42350
H          9.03940        0.87880        9.69100
H         10.25720       -0.08580        8.85130
H         -1.82800       -1.91980        3.12650
H         -3.17370       -1.72550        4.26910
H         -3.42530       -4.17830        4.43490
H         -3.49970       -3.69340        2.73790
H         -2.02920       -4.42130        3.38950
H          1.51470        0.23150        5.99510
H          4.18800        5.77340        5.97640
H         -0.60320        4.70320        2.50130
H          1.25100        6.92370        3.08190
H         -0.46220        7.01100        3.52690
H          0.00250        6.95250        1.80960
H         -0.63270        1.09580        4.35120
H         -1.24340        0.72070        2.72560
H          0.40620        0.23370        3.21160
H          0.67040        3.44280        1.19360
H          0.04410        0.46630        0.84190
H          0.72910       -0.36290       -1.48770
H         -0.21200       -4.76380       -2.46240
H          1.06220       -5.57150       -3.39050
H         -1.57750       -4.56260       -4.56450
H         -0.31140       -5.41530       -5.45060
H         -1.20780       -6.25080       -4.17780
H         -0.24080        8.46220       -6.10150
H          0.35920        9.22540       -4.61990
H         -1.65780        8.41690       -3.39390
H         -2.23230        7.61290       -4.85810
H         -2.13010        9.37930       -4.79770
H          0.34170        3.89720       -7.00670
H         -1.23020       -0.32420       -8.47270
H         -2.63720       -5.92340       -8.11710
H         -3.05370       -5.41620       -6.46920
H         -5.05580       -5.97280       -8.71150
H         -4.73000       -7.02740       -7.33320
H         -5.47510       -5.44370       -7.07960
H         -4.45440        8.27330       -6.17980
H         -5.36090        8.70980       -7.63140
H         -2.99240        9.49940       -7.75490
H         -2.42700        7.83310       -7.56920
H         -3.31680        8.30710       -9.01640
H         -6.54940        3.05600       -5.74050
H         -8.65530        1.96760       -0.96980
H         -4.57870       -2.22000        0.42810
H         -6.70590       -1.93820        1.82070
H         -6.24450       -0.23130        1.82730
H         -5.18490       -1.44080        2.60080
H         -4.41980       -2.23770       -4.03190
H         -4.21030       -3.76730       -3.15370
H         -2.78780       -2.77850       -3.57910
H         -2.75490       -1.28680       -0.47550
H         -2.50630       -4.16290       -1.50490
H         -0.06480       -1.60610       -0.02490
H          5.25900        2.08850        0.31460
H          5.17540        1.92570        2.07880
H          3.09230        3.33070        0.34040
H          3.03120        3.16860        2.10190
H          4.30480        4.12740        1.34640
H         -1.21350      -10.71870        3.52230
H         -0.69390      -10.46440        1.84480
H          1.68340      -10.78870        2.53940
H          0.70020      -12.20280        2.93540
H          1.15780      -11.06210        4.20380
H          2.66700       -6.03820        4.88440
H          4.59380       -4.39910        5.52940
