
  xtb     03042203093D
 energy: -433.303700981520 gnorm: 0.000553351402 xtb: 6.4.1 (unknown)
252275  0     0  0            999 V2000
    2.1464   -1.4127    8.9173 C   0  0  0  0  0  0  0  0  0  0  0  0
    2.2479   -0.6464    7.8144 C   0  0  0  0  0  0  0  0  0  0  0  0
    1.0300   -0.5711    7.0718 C   0  0  0  0  0  0  0  0  0  0  0  0
    0.7630    0.1768    5.9153 C   0  0  0  0  0  0  0  0  0  0  0  0
    1.8417    0.8987    5.2283 C   0  0  0  0  0  0  0  0  0  0  0  0
    3.0221    0.2230    4.9233 C   0  0  0  0  0  0  0  0  0  0  0  0
    4.0557    0.8678    4.2784 C   0  0  0  0  0  0  0  0  0  0  0  0
    3.9472    2.2029    3.9090 C   0  0  0  0  0  0  0  0  0  0  0  0
    5.3339    2.9824    3.1171 S   0  0  0  0  0  0  0  0  0  0  0  0
    4.5717    3.5405    1.5494 C   0  0  0  0  0  0  0  0  0  0  0  0
    4.1755    2.3651    0.6774 C   0  0  0  0  0  0  0  0  0  0  0  0
    2.7698    2.8688    4.2280 C   0  0  0  0  0  0  0  0  0  0  0  0
    2.6285    4.1769    3.9205 F   0  0  0  0  0  0  0  0  0  0  0  0
    1.7199    2.2358    4.8654 C   0  0  0  0  0  0  0  0  0  0  0  0
   -0.5362    0.1314    5.4291 C   0  0  0  0  0  0  0  0  0  0  0  0
   -1.5454   -0.6856    5.9958 C   0  0  0  0  0  0  0  0  0  0  0  0
   -1.2817   -1.4260    7.1559 C   0  0  0  0  0  0  0  0  0  0  0  0
   -2.3011   -2.2722    7.7822 C   0  0  0  0  0  0  0  0  0  0  0  0
   -3.5778   -1.8051    8.0757 C   0  0  0  0  0  0  0  0  0  0  0  0
   -4.5159   -2.6215    8.6800 C   0  0  0  0  0  0  0  0  0  0  0  0
   -4.2147   -3.9404    9.0054 C   0  0  0  0  0  0  0  0  0  0  0  0
   -5.3091   -5.0846    9.7681 S   0  0  0  0  0  0  0  0  0  0  0  0
   -6.8557   -4.1266    9.9772 C   0  0  0  0  0  0  0  0  0  0  0  0
   -7.8972   -5.0230   10.6199 C   0  0  0  0  0  0  0  0  0  0  0  0
   -2.9296   -4.3940    8.7011 C   0  0  0  0  0  0  0  0  0  0  0  0
   -1.9871   -3.5882    8.1109 C   0  0  0  0  0  0  0  0  0  0  0  0
   -2.5902   -5.6715    8.9874 F   0  0  0  0  0  0  0  0  0  0  0  0
    0.0038   -1.3349    7.6733 C   0  0  0  0  0  0  0  0  0  0  0  0
    0.5735   -2.1018    9.1337 S   0  0  0  0  0  0  0  0  0  0  0  0
   -2.7304   -0.6855    5.2091 C   0  0  0  0  0  0  0  0  0  0  0  0
   -2.6683    0.1387    4.1330 C   0  0  0  0  0  0  0  0  0  0  0  0
   -1.1224    0.9578    4.0116 S   0  0  0  0  0  0  0  0  0  0  0  0
   -3.6306    0.3230    3.0799 C   0  0  0  0  0  0  0  0  0  0  0  0
   -3.9997    1.4766    2.4661 C   0  0  0  0  0  0  0  0  0  0  0  0
   -4.8365    1.2796    1.3343 C   0  0  0  0  0  0  0  0  0  0  0  0
   -5.3255    2.2449    0.4390 C   0  0  0  0  0  0  0  0  0  0  0  0
   -5.1351    3.6873    0.6367 C   0  0  0  0  0  0  0  0  0  0  0  0
   -3.8799    4.2461    0.8664 C   0  0  0  0  0  0  0  0  0  0  0  0
   -3.7476    5.6056    1.0493 C   0  0  0  0  0  0  0  0  0  0  0  0
   -4.8468    6.4622    1.0009 C   0  0  0  0  0  0  0  0  0  0  0  0
   -4.5198    8.1868    1.2139 S   0  0  0  0  0  0  0  0  0  0  0  0
   -5.9824    8.8374    2.1007 C   0  0  0  0  0  0  0  0  0  0  0  0
   -6.2084    8.1317    3.4224 C   0  0  0  0  0  0  0  0  0  0  0  0
   -6.0862    5.8929    0.7271 C   0  0  0  0  0  0  0  0  0  0  0  0
   -7.1968    6.6558    0.6190 F   0  0  0  0  0  0  0  0  0  0  0  0
   -6.2375    4.5316    0.5577 C   0  0  0  0  0  0  0  0  0  0  0  0
   -5.9451    1.7707   -0.7071 C   0  0  0  0  0  0  0  0  0  0  0  0
   -6.1506    0.3939   -0.9581 C   0  0  0  0  0  0  0  0  0  0  0  0
   -5.7566   -0.5694   -0.0135 C   0  0  0  0  0  0  0  0  0  0  0  0
   -5.9106   -1.9894   -0.3551 C   0  0  0  0  0  0  0  0  0  0  0  0
   -7.1483   -2.4989   -0.7489 C   0  0  0  0  0  0  0  0  0  0  0  0
   -7.2597   -3.7904   -1.2095 C   0  0  0  0  0  0  0  0  0  0  0  0
   -6.1470   -4.6298   -1.3290 C   0  0  0  0  0  0  0  0  0  0  0  0
   -6.4794   -6.1910   -2.0790 S   0  0  0  0  0  0  0  0  0  0  0  0
   -5.0426   -7.2765   -1.7730 C   0  0  0  0  0  0  0  0  0  0  0  0
   -4.9136   -7.6647   -0.3138 C   0  0  0  0  0  0  0  0  0  0  0  0
   -4.9249   -4.1096   -0.9144 C   0  0  0  0  0  0  0  0  0  0  0  0
   -4.8027   -2.8242   -0.4225 C   0  0  0  0  0  0  0  0  0  0  0  0
   -3.7812   -4.8304   -1.0057 F   0  0  0  0  0  0  0  0  0  0  0  0
   -5.0843   -0.0979    1.1017 C   0  0  0  0  0  0  0  0  0  0  0  0
   -4.3506   -1.0923    2.3324 S   0  0  0  0  0  0  0  0  0  0  0  0
   -6.4829    0.1444   -2.3113 C   0  0  0  0  0  0  0  0  0  0  0  0
   -6.4576    1.2634   -3.0969 C   0  0  0  0  0  0  0  0  0  0  0  0
   -6.2688    2.7242   -2.1371 S   0  0  0  0  0  0  0  0  0  0  0  0
   -6.0972    1.2595   -4.4832 C   0  0  0  0  0  0  0  0  0  0  0  0
   -5.7126    0.1362   -5.1641 C   0  0  0  0  0  0  0  0  0  0  0  0
   -4.7041    0.3840   -6.1273 C   0  0  0  0  0  0  0  0  0  0  0  0
   -3.7988   -0.5594   -6.6389 C   0  0  0  0  0  0  0  0  0  0  0  0
   -3.9449   -1.9993   -6.3646 C   0  0  0  0  0  0  0  0  0  0  0  0
   -3.9914   -2.4624   -5.0499 C   0  0  0  0  0  0  0  0  0  0  0  0
   -4.0796   -3.8113   -4.7847 C   0  0  0  0  0  0  0  0  0  0  0  0
   -4.1366   -4.7507   -5.8124 C   0  0  0  0  0  0  0  0  0  0  0  0
   -4.2964   -6.4469   -5.3394 S   0  0  0  0  0  0  0  0  0  0  0  0
   -3.2478   -7.3515   -6.5365 C   0  0  0  0  0  0  0  0  0  0  0  0
   -1.8138   -6.8621   -6.5189 C   0  0  0  0  0  0  0  0  0  0  0  0
   -4.1052   -4.2718   -7.1184 C   0  0  0  0  0  0  0  0  0  0  0  0
   -4.1879   -5.1173   -8.1691 F   0  0  0  0  0  0  0  0  0  0  0  0
   -3.9886   -2.9237   -7.3992 C   0  0  0  0  0  0  0  0  0  0  0  0
   -2.6265   -0.0577   -7.1797 C   0  0  0  0  0  0  0  0  0  0  0  0
   -2.3514    1.3273   -7.2940 C   0  0  0  0  0  0  0  0  0  0  0  0
   -3.3111    2.2681   -6.8949 C   0  0  0  0  0  0  0  0  0  0  0  0
   -3.0760    3.7210   -6.9286 C   0  0  0  0  0  0  0  0  0  0  0  0
   -2.0334    4.3096   -6.2225 C   0  0  0  0  0  0  0  0  0  0  0  0
   -1.8489    5.6797   -6.2314 C   0  0  0  0  0  0  0  0  0  0  0  0
   -2.6980    6.5076   -6.9563 C   0  0  0  0  0  0  0  0  0  0  0  0
   -2.5951    8.2626   -7.0541 S   0  0  0  0  0  0  0  0  0  0  0  0
   -0.9975    8.6714   -6.2703 C   0  0  0  0  0  0  0  0  0  0  0  0
    0.1869    8.3115   -7.1475 C   0  0  0  0  0  0  0  0  0  0  0  0
   -3.7500    5.9016   -7.6470 C   0  0  0  0  0  0  0  0  0  0  0  0
   -3.9522    4.5403   -7.6356 C   0  0  0  0  0  0  0  0  0  0  0  0
   -4.5998    6.6754   -8.3498 F   0  0  0  0  0  0  0  0  0  0  0  0
   -4.4453    1.7686   -6.2758 C   0  0  0  0  0  0  0  0  0  0  0  0
   -5.4829    2.7220   -5.2414 S   0  0  0  0  0  0  0  0  0  0  0  0
   -0.9644    1.5685   -7.5090 C   0  0  0  0  0  0  0  0  0  0  0  0
   -0.2063    0.4438   -7.4936 C   0  0  0  0  0  0  0  0  0  0  0  0
   -1.1877   -1.0176   -7.4352 S   0  0  0  0  0  0  0  0  0  0  0  0
    1.1620    0.3852   -7.0113 C   0  0  0  0  0  0  0  0  0  0  0  0
    1.3775    0.6364   -5.6941 C   0  0  0  0  0  0  0  0  0  0  0  0
    2.7203    0.4544   -5.2795 C   0  0  0  0  0  0  0  0  0  0  0  0
    3.2285    0.5662   -3.9746 C   0  0  0  0  0  0  0  0  0  0  0  0
    2.3559    1.0310   -2.8888 C   0  0  0  0  0  0  0  0  0  0  0  0
    1.5557    2.1593   -3.0781 C   0  0  0  0  0  0  0  0  0  0  0  0
    0.6580    2.5609   -2.1107 C   0  0  0  0  0  0  0  0  0  0  0  0
    0.5514    1.8689   -0.9118 C   0  0  0  0  0  0  0  0  0  0  0  0
   -0.6653    2.3749    0.2849 S   0  0  0  0  0  0  0  0  0  0  0  0
    0.4485    3.0793    1.5687 C   0  0  0  0  0  0  0  0  0  0  0  0
   -0.2895    4.1463    2.3500 C   0  0  0  0  0  0  0  0  0  0  0  0
    1.3913    0.7820   -0.7063 C   0  0  0  0  0  0  0  0  0  0  0  0
    1.3482    0.1103    0.4632 F   0  0  0  0  0  0  0  0  0  0  0  0
    2.2789    0.3550   -1.6749 C   0  0  0  0  0  0  0  0  0  0  0  0
    4.5546    0.2062   -3.7990 C   0  0  0  0  0  0  0  0  0  0  0  0
    5.4026   -0.1464   -4.8819 C   0  0  0  0  0  0  0  0  0  0  0  0
    4.8954   -0.2225   -6.1916 C   0  0  0  0  0  0  0  0  0  0  0  0
    5.7548   -0.5870   -7.3237 C   0  0  0  0  0  0  0  0  0  0  0  0
    5.3915   -1.6055   -8.1992 C   0  0  0  0  0  0  0  0  0  0  0  0
    6.1948   -1.9517   -9.2683 C   0  0  0  0  0  0  0  0  0  0  0  0
    7.3863   -1.2783   -9.5109 C   0  0  0  0  0  0  0  0  0  0  0  0
    8.5101   -1.6201  -10.8233 S   0  0  0  0  0  0  0  0  0  0  0  0
    7.5665   -2.6992  -11.9541 C   0  0  0  0  0  0  0  0  0  0  0  0
    6.4672   -1.9509  -12.6840 C   0  0  0  0  0  0  0  0  0  0  0  0
    7.7395   -0.2599   -8.6228 C   0  0  0  0  0  0  0  0  0  0  0  0
    6.9548    0.0864   -7.5467 C   0  0  0  0  0  0  0  0  0  0  0  0
    8.8898    0.4139   -8.8255 F   0  0  0  0  0  0  0  0  0  0  0  0
    3.5406    0.0367   -6.3512 C   0  0  0  0  0  0  0  0  0  0  0  0
    2.6232   -0.0836   -7.8420 S   0  0  0  0  0  0  0  0  0  0  0  0
    6.7096   -0.4699   -4.4365 C   0  0  0  0  0  0  0  0  0  0  0  0
    6.8593   -0.4033   -3.0818 C   0  0  0  0  0  0  0  0  0  0  0  0
    5.3958    0.1123   -2.2735 S   0  0  0  0  0  0  0  0  0  0  0  0
    7.9862   -0.7624   -2.2983 C   0  0  0  0  0  0  0  0  0  0  0  0
    9.5929   -0.8646   -2.9489 S   0  0  0  0  0  0  0  0  0  0  0  0
   10.2428   -1.4497   -1.4734 C   0  0  0  0  0  0  0  0  0  0  0  0
    9.2745   -1.5872   -0.5131 C   0  0  0  0  0  0  0  0  0  0  0  0
    7.9837   -1.1636   -0.9700 C   0  0  0  0  0  0  0  0  0  0  0  0
    6.9041   -1.2088   -0.1637 N   0  0  0  0  0  0  0  0  0  0  0  0
    7.0542   -1.7054    1.0427 C   0  0  0  0  0  0  0  0  0  0  0  0
    8.3434   -2.2773    1.4509 C   0  0  0  0  0  0  0  0  0  0  0  0
    8.4810   -2.9791    2.6102 N   0  0  0  0  0  0  0  0  0  0  0  0
    9.7261   -3.6530    2.8911 C   0  0  0  0  0  0  0  0  0  0  0  0
    9.4106   -2.1679    0.7042 N   0  0  0  0  0  0  0  0  0  0  0  0
    5.9362   -1.7284    1.8378 N   0  0  0  0  0  0  0  0  0  0  0  0
    4.6446   -1.5298    1.2085 C   0  0  0  0  0  0  0  0  0  0  0  0
    5.9722   -1.9237    3.1990 C   0  0  0  0  0  0  0  0  0  0  0  0
    4.9450   -2.3946    3.9378 C   0  0  0  0  0  0  0  0  0  0  0  0
    5.0241   -2.6272    5.3380 C   0  0  0  0  0  0  0  0  0  0  0  0
    6.4511   -2.3386    6.2907 S   0  0  0  0  0  0  0  0  0  0  0  0
    5.7672   -3.0471    7.6990 C   0  0  0  0  0  0  0  0  0  0  0  0
    4.4960   -3.4996    7.4668 C   0  0  0  0  0  0  0  0  0  0  0  0
    4.0543   -3.2339    6.1278 C   0  0  0  0  0  0  0  0  0  0  0  0
    2.8146   -3.5852    5.7181 N   0  0  0  0  0  0  0  0  0  0  0  0
    2.0687   -4.2481    6.5601 C   0  0  0  0  0  0  0  0  0  0  0  0
    2.5159   -4.5245    7.9239 C   0  0  0  0  0  0  0  0  0  0  0  0
    1.7089   -5.1888    8.7922 N   0  0  0  0  0  0  0  0  0  0  0  0
    2.0673   -5.2944   10.1856 C   0  0  0  0  0  0  0  0  0  0  0  0
    3.6848   -4.1275    8.3567 N   0  0  0  0  0  0  0  0  0  0  0  0
    0.7872   -4.5911    6.1536 N   0  0  0  0  0  0  0  0  0  0  0  0
    0.3363   -5.9645    6.2845 C   0  0  0  0  0  0  0  0  0  0  0  0
    0.1571   -3.7810    5.2217 C   0  0  0  0  0  0  0  0  0  0  0  0
   -0.9973   -4.0375    4.6191 C   0  0  0  0  0  0  0  0  0  0  0  0
    2.9075   -1.6403    9.6377 H   0  0  0  0  0  0  0  0  0  0  0  0
    3.1459   -0.1271    7.5327 H   0  0  0  0  0  0  0  0  0  0  0  0
    3.1145   -0.8220    5.1720 H   0  0  0  0  0  0  0  0  0  0  0  0
    4.9700    0.3434    4.0498 H   0  0  0  0  0  0  0  0  0  0  0  0
    3.7252    4.1817    1.7890 H   0  0  0  0  0  0  0  0  0  0  0  0
    5.3477    4.1399    1.0750 H   0  0  0  0  0  0  0  0  0  0  0  0
    3.7615    2.7204   -0.2652 H   0  0  0  0  0  0  0  0  0  0  0  0
    5.0399    1.7427    0.4576 H   0  0  0  0  0  0  0  0  0  0  0  0
    3.4282    1.7515    1.1773 H   0  0  0  0  0  0  0  0  0  0  0  0
    0.8303    2.7988    5.1012 H   0  0  0  0  0  0  0  0  0  0  0  0
   -3.8367   -0.7813    7.8515 H   0  0  0  0  0  0  0  0  0  0  0  0
   -5.4906   -2.2176    8.8997 H   0  0  0  0  0  0  0  0  0  0  0  0
   -6.6366   -3.2676   10.6116 H   0  0  0  0  0  0  0  0  0  0  0  0
   -7.1819   -3.7958    8.9910 H   0  0  0  0  0  0  0  0  0  0  0  0
   -8.0910   -5.8912    9.9941 H   0  0  0  0  0  0  0  0  0  0  0  0
   -8.8266   -4.4731   10.7522 H   0  0  0  0  0  0  0  0  0  0  0  0
   -7.5545   -5.3690   11.5922 H   0  0  0  0  0  0  0  0  0  0  0  0
   -1.0138   -3.9841    7.8785 H   0  0  0  0  0  0  0  0  0  0  0  0
   -3.5903   -1.2914    5.4314 H   0  0  0  0  0  0  0  0  0  0  0  0
   -3.6762    2.4443    2.8037 H   0  0  0  0  0  0  0  0  0  0  0  0
   -3.0065    3.6132    0.8724 H   0  0  0  0  0  0  0  0  0  0  0  0
   -2.7778    6.0412    1.2331 H   0  0  0  0  0  0  0  0  0  0  0  0
   -5.7310    9.8870    2.2541 H   0  0  0  0  0  0  0  0  0  0  0  0
   -6.8508    8.7730    1.4492 H   0  0  0  0  0  0  0  0  0  0  0  0
   -6.4571    7.0839    3.2659 H   0  0  0  0  0  0  0  0  0  0  0  0
   -5.3155    8.1866    4.0418 H   0  0  0  0  0  0  0  0  0  0  0  0
   -7.0326    8.6038    3.9531 H   0  0  0  0  0  0  0  0  0  0  0  0
   -7.2246    4.1412    0.3628 H   0  0  0  0  0  0  0  0  0  0  0  0
   -8.0247   -1.8716   -0.6890 H   0  0  0  0  0  0  0  0  0  0  0  0
   -8.2182   -4.1795   -1.5162 H   0  0  0  0  0  0  0  0  0  0  0  0
   -4.1476   -6.7957   -2.1587 H   0  0  0  0  0  0  0  0  0  0  0  0
   -5.2649   -8.1452   -2.3933 H   0  0  0  0  0  0  0  0  0  0  0  0
   -4.1021   -8.3801   -0.1972 H   0  0  0  0  0  0  0  0  0  0  0  0
   -5.8357   -8.1197    0.0416 H   0  0  0  0  0  0  0  0  0  0  0  0
   -4.6949   -6.7967    0.3033 H   0  0  0  0  0  0  0  0  0  0  0  0
   -3.8218   -2.4733   -0.1421 H   0  0  0  0  0  0  0  0  0  0  0  0
   -6.5920   -0.8496   -2.7045 H   0  0  0  0  0  0  0  0  0  0  0  0
   -6.0251   -0.8546   -4.8922 H   0  0  0  0  0  0  0  0  0  0  0  0
   -3.9210   -1.7605   -4.2322 H   0  0  0  0  0  0  0  0  0  0  0  0
   -4.0982   -4.1650   -3.7663 H   0  0  0  0  0  0  0  0  0  0  0  0
   -3.6931   -7.2770   -7.5260 H   0  0  0  0  0  0  0  0  0  0  0  0
   -3.3153   -8.3844   -6.1943 H   0  0  0  0  0  0  0  0  0  0  0  0
   -1.4024   -6.9195   -5.5131 H   0  0  0  0  0  0  0  0  0  0  0  0
   -1.7501   -5.8301   -6.8589 H   0  0  0  0  0  0  0  0  0  0  0  0
   -1.2090   -7.4788   -7.1807 H   0  0  0  0  0  0  0  0  0  0  0  0
   -3.9564   -2.6069   -8.4303 H   0  0  0  0  0  0  0  0  0  0  0  0
   -1.3736    3.6914   -5.6318 H   0  0  0  0  0  0  0  0  0  0  0  0
   -1.0395    6.0971   -5.6549 H   0  0  0  0  0  0  0  0  0  0  0  0
   -1.0554    9.7501   -6.1251 H   0  0  0  0  0  0  0  0  0  0  0  0
   -0.9568    8.1936   -5.2924 H   0  0  0  0  0  0  0  0  0  0  0  0
    1.1140    8.6004   -6.6557 H   0  0  0  0  0  0  0  0  0  0  0  0
    0.2174    7.2426   -7.3476 H   0  0  0  0  0  0  0  0  0  0  0  0
    0.1204    8.8346   -8.0984 H   0  0  0  0  0  0  0  0  0  0  0  0
   -4.7822    4.1240   -8.1846 H   0  0  0  0  0  0  0  0  0  0  0  0
   -0.5408    2.5548   -7.5658 H   0  0  0  0  0  0  0  0  0  0  0  0
    0.5773    0.8906   -5.0222 H   0  0  0  0  0  0  0  0  0  0  0  0
    1.6490    2.7284   -3.9905 H   0  0  0  0  0  0  0  0  0  0  0  0
    0.0211    3.4174   -2.2706 H   0  0  0  0  0  0  0  0  0  0  0  0
    0.7740    2.2613    2.2112 H   0  0  0  0  0  0  0  0  0  0  0  0
    1.3017    3.5015    1.0392 H   0  0  0  0  0  0  0  0  0  0  0  0
   -0.6562    4.9176    1.6768 H   0  0  0  0  0  0  0  0  0  0  0  0
   -1.1340    3.7139    2.8814 H   0  0  0  0  0  0  0  0  0  0  0  0
    0.3805    4.6080    3.0700 H   0  0  0  0  0  0  0  0  0  0  0  0
    2.8790   -0.5197   -1.4839 H   0  0  0  0  0  0  0  0  0  0  0  0
    4.4783   -2.1551   -8.0298 H   0  0  0  0  0  0  0  0  0  0  0  0
    5.8842   -2.7614   -9.9081 H   0  0  0  0  0  0  0  0  0  0  0  0
    8.3230   -3.0550  -12.6537 H   0  0  0  0  0  0  0  0  0  0  0  0
    7.1894   -3.5516  -11.3905 H   0  0  0  0  0  0  0  0  0  0  0  0
    5.9544   -2.6230  -13.3696 H   0  0  0  0  0  0  0  0  0  0  0  0
    5.7388   -1.5442  -11.9857 H   0  0  0  0  0  0  0  0  0  0  0  0
    6.8904   -1.1279  -13.2549 H   0  0  0  0  0  0  0  0  0  0  0  0
    7.2687    0.8937   -6.9039 H   0  0  0  0  0  0  0  0  0  0  0  0
    7.5022   -0.7933   -5.0868 H   0  0  0  0  0  0  0  0  0  0  0  0
   11.2861   -1.6783   -1.4012 H   0  0  0  0  0  0  0  0  0  0  0  0
    7.6523   -3.4182    2.9822 H   0  0  0  0  0  0  0  0  0  0  0  0
   10.5419   -2.9692    2.6687 H   0  0  0  0  0  0  0  0  0  0  0  0
    9.7430   -3.9235    3.9448 H   0  0  0  0  0  0  0  0  0  0  0  0
    9.8572   -4.5508    2.2793 H   0  0  0  0  0  0  0  0  0  0  0  0
    4.0150   -0.9123    1.8473 H   0  0  0  0  0  0  0  0  0  0  0  0
    4.8078   -1.0323    0.2562 H   0  0  0  0  0  0  0  0  0  0  0  0
    4.1486   -2.4875    1.0351 H   0  0  0  0  0  0  0  0  0  0  0  0
    6.8925   -1.6402    3.6919 H   0  0  0  0  0  0  0  0  0  0  0  0
    4.0036   -2.6796    3.4925 H   0  0  0  0  0  0  0  0  0  0  0  0
    6.3442   -3.1099    8.5983 H   0  0  0  0  0  0  0  0  0  0  0  0
    0.7187   -5.1730    8.6063 H   0  0  0  0  0  0  0  0  0  0  0  0
    1.8020   -4.3910   10.7434 H   0  0  0  0  0  0  0  0  0  0  0  0
    1.5474   -6.1476   10.6175 H   0  0  0  0  0  0  0  0  0  0  0  0
    3.1430   -5.4394   10.2495 H   0  0  0  0  0  0  0  0  0  0  0  0
   -0.6364   -6.0210    6.7787 H   0  0  0  0  0  0  0  0  0  0  0  0
    1.0631   -6.5444    6.8478 H   0  0  0  0  0  0  0  0  0  0  0  0
    0.2377   -6.4088    5.2897 H   0  0  0  0  0  0  0  0  0  0  0  0
    0.6804   -2.8520    5.0509 H   0  0  0  0  0  0  0  0  0  0  0  0
   -1.4275   -3.3124    3.9536 H   0  0  0  0  0  0  0  0  0  0  0  0
   -1.5547   -4.9454    4.7600 H   0  0  0  0  0  0  0  0  0  0  0  0
  1  2  2  0  0  0  0
  2  3  1  0  0  0  0
  3  4  2  0  0  0  0
  4  5  1  0  0  0  0
  5  6  2  0  0  0  0
  6  7  1  0  0  0  0
  7  8  2  0  0  0  0
  8  9  1  0  0  0  0
  9 10  1  0  0  0  0
 10 11  1  0  0  0  0
  8 12  1  0  0  0  0
 12 13  1  0  0  0  0
 12 14  2  0  0  0  0
  4 15  1  0  0  0  0
 15 16  2  0  0  0  0
 16 17  1  0  0  0  0
 17 18  1  0  0  0  0
 18 19  2  0  0  0  0
 19 20  1  0  0  0  0
 20 21  2  0  0  0  0
 21 22  1  0  0  0  0
 22 23  1  0  0  0  0
 23 24  1  0  0  0  0
 21 25  1  0  0  0  0
 25 26  2  0  0  0  0
 25 27  1  0  0  0  0
 17 28  2  0  0  0  0
 28 29  1  0  0  0  0
 16 30  1  0  0  0  0
 30 31  2  0  0  0  0
 31 32  1  0  0  0  0
 31 33  1  0  0  0  0
 33 34  2  0  0  0  0
 34 35  1  0  0  0  0
 35 36  2  0  0  0  0
 36 37  1  0  0  0  0
 37 38  2  0  0  0  0
 38 39  1  0  0  0  0
 39 40  2  0  0  0  0
 40 41  1  0  0  0  0
 41 42  1  0  0  0  0
 42 43  1  0  0  0  0
 40 44  1  0  0  0  0
 44 45  1  0  0  0  0
 44 46  2  0  0  0  0
 36 47  1  0  0  0  0
 47 48  2  0  0  0  0
 48 49  1  0  0  0  0
 49 50  1  0  0  0  0
 50 51  2  0  0  0  0
 51 52  1  0  0  0  0
 52 53  2  0  0  0  0
 53 54  1  0  0  0  0
 54 55  1  0  0  0  0
 55 56  1  0  0  0  0
 53 57  1  0  0  0  0
 57 58  2  0  0  0  0
 57 59  1  0  0  0  0
 49 60  2  0  0  0  0
 60 61  1  0  0  0  0
 48 62  1  0  0  0  0
 62 63  2  0  0  0  0
 63 64  1  0  0  0  0
 63 65  1  0  0  0  0
 65 66  2  0  0  0  0
 66 67  1  0  0  0  0
 67 68  2  0  0  0  0
 68 69  1  0  0  0  0
 69 70  2  0  0  0  0
 70 71  1  0  0  0  0
 71 72  2  0  0  0  0
 72 73  1  0  0  0  0
 73 74  1  0  0  0  0
 74 75  1  0  0  0  0
 72 76  1  0  0  0  0
 76 77  1  0  0  0  0
 76 78  2  0  0  0  0
 68 79  1  0  0  0  0
 79 80  2  0  0  0  0
 80 81  1  0  0  0  0
 81 82  1  0  0  0  0
 82 83  2  0  0  0  0
 83 84  1  0  0  0  0
 84 85  2  0  0  0  0
 85 86  1  0  0  0  0
 86 87  1  0  0  0  0
 87 88  1  0  0  0  0
 85 89  1  0  0  0  0
 89 90  2  0  0  0  0
 89 91  1  0  0  0  0
 81 92  2  0  0  0  0
 92 93  1  0  0  0  0
 80 94  1  0  0  0  0
 94 95  2  0  0  0  0
 95 96  1  0  0  0  0
 95 97  1  0  0  0  0
 97 98  2  0  0  0  0
 98 99  1  0  0  0  0
 99100  2  0  0  0  0
100101  1  0  0  0  0
101102  2  0  0  0  0
102103  1  0  0  0  0
103104  2  0  0  0  0
104105  1  0  0  0  0
105106  1  0  0  0  0
106107  1  0  0  0  0
104108  1  0  0  0  0
108109  1  0  0  0  0
108110  2  0  0  0  0
100111  1  0  0  0  0
111112  2  0  0  0  0
112113  1  0  0  0  0
113114  1  0  0  0  0
114115  2  0  0  0  0
115116  1  0  0  0  0
116117  2  0  0  0  0
117118  1  0  0  0  0
118119  1  0  0  0  0
119120  1  0  0  0  0
117121  1  0  0  0  0
121122  2  0  0  0  0
121123  1  0  0  0  0
113124  2  0  0  0  0
124125  1  0  0  0  0
112126  1  0  0  0  0
126127  2  0  0  0  0
127128  1  0  0  0  0
127129  1  0  0  0  0
129130  1  0  0  0  0
130131  1  0  0  0  0
131132  2  0  0  0  0
132133  1  0  0  0  0
133134  1  0  0  0  0
134135  2  0  0  0  0
135136  1  0  0  0  0
136137  1  0  0  0  0
137138  1  0  0  0  0
136139  2  0  0  0  0
135140  1  0  0  0  0
140141  1  0  0  0  0
140142  1  0  0  0  0
142143  2  0  0  0  0
143144  1  0  0  0  0
144145  1  0  0  0  0
145146  1  0  0  0  0
146147  2  0  0  0  0
147148  1  0  0  0  0
148149  1  0  0  0  0
149150  2  0  0  0  0
150151  1  0  0  0  0
151152  1  0  0  0  0
152153  1  0  0  0  0
151154  2  0  0  0  0
150155  1  0  0  0  0
155156  1  0  0  0  0
155157  1  0  0  0  0
157158  2  0  0  0  0
 29  1  1  0  0  0  0
 61 33  1  0  0  0  0
 93 65  1  0  0  0  0
125 97  1  0  0  0  0
133129  2  0  0  0  0
148144  2  0  0  0  0
 28  3  1  0  0  0  0
 60 35  1  0  0  0  0
 92 67  1  0  0  0  0
124 99  1  0  0  0  0
139132  1  0  0  0  0
154147  1  0  0  0  0
 14  5  1  0  0  0  0
 32 15  1  0  0  0  0
 46 37  1  0  0  0  0
 64 47  1  0  0  0  0
 78 69  1  0  0  0  0
 96 79  1  0  0  0  0
110101  1  0  0  0  0
128111  1  0  0  0  0
 26 18  1  0  0  0  0
 58 50  1  0  0  0  0
 90 82  1  0  0  0  0
122114  1  0  0  0  0
  1159  1  0  0  0  0
  2160  1  0  0  0  0
  6161  1  0  0  0  0
  7162  1  0  0  0  0
 10163  1  0  0  0  0
 10164  1  0  0  0  0
 11165  1  0  0  0  0
 11166  1  0  0  0  0
 11167  1  0  0  0  0
 14168  1  0  0  0  0
 19169  1  0  0  0  0
 20170  1  0  0  0  0
 23171  1  0  0  0  0
 23172  1  0  0  0  0
 24173  1  0  0  0  0
 24174  1  0  0  0  0
 24175  1  0  0  0  0
 26176  1  0  0  0  0
 30177  1  0  0  0  0
 34178  1  0  0  0  0
 38179  1  0  0  0  0
 39180  1  0  0  0  0
 42181  1  0  0  0  0
 42182  1  0  0  0  0
 43183  1  0  0  0  0
 43184  1  0  0  0  0
 43185  1  0  0  0  0
 46186  1  0  0  0  0
 51187  1  0  0  0  0
 52188  1  0  0  0  0
 55189  1  0  0  0  0
 55190  1  0  0  0  0
 56191  1  0  0  0  0
 56192  1  0  0  0  0
 56193  1  0  0  0  0
 58194  1  0  0  0  0
 62195  1  0  0  0  0
 66196  1  0  0  0  0
 70197  1  0  0  0  0
 71198  1  0  0  0  0
 74199  1  0  0  0  0
 74200  1  0  0  0  0
 75201  1  0  0  0  0
 75202  1  0  0  0  0
 75203  1  0  0  0  0
 78204  1  0  0  0  0
 83205  1  0  0  0  0
 84206  1  0  0  0  0
 87207  1  0  0  0  0
 87208  1  0  0  0  0
 88209  1  0  0  0  0
 88210  1  0  0  0  0
 88211  1  0  0  0  0
 90212  1  0  0  0  0
 94213  1  0  0  0  0
 98214  1  0  0  0  0
102215  1  0  0  0  0
103216  1  0  0  0  0
106217  1  0  0  0  0
106218  1  0  0  0  0
107219  1  0  0  0  0
107220  1  0  0  0  0
107221  1  0  0  0  0
110222  1  0  0  0  0
115223  1  0  0  0  0
116224  1  0  0  0  0
119225  1  0  0  0  0
119226  1  0  0  0  0
120227  1  0  0  0  0
120228  1  0  0  0  0
120229  1  0  0  0  0
122230  1  0  0  0  0
126231  1  0  0  0  0
131232  1  0  0  0  0
137233  1  0  0  0  0
138234  1  0  0  0  0
138235  1  0  0  0  0
138236  1  0  0  0  0
141237  1  0  0  0  0
141238  1  0  0  0  0
141239  1  0  0  0  0
142240  1  0  0  0  0
143241  1  0  0  0  0
146242  1  0  0  0  0
152243  1  0  0  0  0
153244  1  0  0  0  0
153245  1  0  0  0  0
153246  1  0  0  0  0
156247  1  0  0  0  0
156248  1  0  0  0  0
156249  1  0  0  0  0
157250  1  0  0  0  0
158251  1  0  0  0  0
158252  1  0  0  0  0
M  END
