223

C         -8.76200        4.23360       -5.67200
C         -7.80370        3.80670       -6.51800
C         -7.00730        2.75940       -5.96840
C         -5.91330        2.10260       -6.55260
C         -5.38760        2.49550       -7.84970
S         -5.16360        1.33230       -9.12120
C         -4.52500        2.52250      -10.20280
C         -4.04690        2.14340      -11.56070
C         -2.66490        1.48960      -11.48690
C         -4.48500        3.74230       -9.59610
Cl        -3.90180        5.17020      -10.34940
C         -4.97870        3.73240       -8.26360
Cl        -4.97280        5.12800       -7.26450
C         -5.33720        1.06940       -5.82590
C         -5.79440        0.68030       -4.54360
C         -6.84840        1.38000       -3.92940
C         -7.29650        1.03060       -2.59430
S         -8.99320        0.82830       -2.26580
C         -8.70430        0.35940       -0.62610
C         -9.84200        0.06010        0.28460
C        -10.79540        1.25210        0.37370
C         -7.36820        0.36600       -0.36160
C         -6.56630        0.76340       -1.46670
Cl        -4.87210        0.99920       -1.29960
Cl        -6.67090       -0.09500        1.13910
C         -7.44230        2.39490       -4.67250
S         -8.77620        3.39120       -4.16080
C         -5.04230       -0.40120       -4.02420
C         -3.99820       -0.76950       -4.82010
S         -3.95210        0.13810       -6.31670
C         -2.91800       -1.63550       -4.46860
C         -2.60280       -2.06360       -3.21100
C         -1.32390       -2.66360       -3.12400
C         -0.64440       -3.08670       -1.96520
C         -1.24780       -2.91600       -0.65090
S         -1.40780       -4.23670        0.46770
C         -2.20570       -3.25030        1.64450
C         -2.63640       -3.79590        2.96210
C         -1.69870       -3.33820        4.08170
C         -2.31820       -1.96900        1.19200
Cl        -3.07230       -0.70610        2.08210
C         -1.77150       -1.77420       -0.10490
Cl        -1.70620       -0.22600       -0.84690
C          0.64620       -3.56830       -2.13840
C          1.27810       -3.63340       -3.40530
C          0.57930       -3.26530       -4.56850
C          1.18890       -3.39500       -5.87840
S          1.16600       -2.10200       -7.03950
C          2.02000       -3.03980       -8.21690
C          2.30990       -2.48910       -9.56910
C          1.04810       -2.47550      -10.43490
C          2.29020       -4.28360       -7.72870
C          1.82830       -4.48680       -6.40120
Cl         1.99240       -5.98930       -5.58870
Cl         3.11060       -5.50530       -8.61190
C         -0.69540       -2.74530       -4.39110
S         -1.69310       -2.06210       -5.64120
C          2.66190       -3.91280       -3.29330
C          3.08430       -4.08060       -2.00940
S          1.75890       -3.97770       -0.85920
C          4.43210       -4.04390       -1.53730
C          4.89700       -4.27420       -0.27670
C          6.18880       -3.73860       -0.04580
C          6.87190       -3.60880        1.17820
C          6.45310       -4.26270        2.40550
S          4.81360       -4.20960        2.98320
C          5.21500       -5.03730        4.44910
C          4.16820       -5.37760        5.45110
C          3.35370       -6.59390        5.00470
C          6.54260       -5.34210        4.46990
Cl         7.31510       -6.17670        5.75420
C          7.24960       -4.89420        3.32230
Cl         8.92180       -5.19360        3.09970
C          7.89270       -2.66710        1.21520
C          8.31350       -1.91500        0.09000
C          7.79670       -2.23460       -1.17960
C          8.24510       -1.59880       -2.40600
S          8.37860        0.12610       -2.58620
C          8.85070        0.00060       -4.24580
C          9.19330        1.21070       -5.04200
C         10.63970        1.64200       -4.78740
C          8.90930       -1.30780       -4.62200
C          8.55530       -2.21520       -3.58850
Cl         8.59710       -3.91430       -3.80500
Cl         9.35530       -1.83280       -6.19340
C          6.71310       -3.10790       -1.20140
S          5.64620       -3.30030       -2.56370
C          9.02660       -0.75000        0.47250
C          9.09860       -0.57820        1.82550
S          8.53460       -2.00530        2.69290
C          9.06470        0.65660        2.54270
C          8.75220        0.76510        3.86900
C          7.99640        1.91930        4.17920
C          7.19380        2.12070        5.31680
C          7.25000        1.25560        6.48390
S          7.16380       -0.47740        6.34830
C          7.15370       -0.69330        8.06350
C          7.11400       -2.04920        8.68090
C          6.54470       -3.10210        7.73830
C          7.21450        0.51560        8.69170
Cl         7.23410        0.70060       10.39760
C          7.25680        1.62140        7.80160
Cl         7.36880        3.24220        8.34560
C          6.17760        3.05950        5.19760
C          5.98160        3.86450        4.04770
C          6.88940        3.76800        2.97750
C          6.71740        4.53550        1.74870
S          7.91360        5.67880        1.22480
C          7.02760        6.06070       -0.21230
C          7.50810        7.10140       -1.16240
C          7.05640        8.49570       -0.72110
C          5.87430        5.33660       -0.26540
C          5.69840        4.46510        0.84350
Cl         4.36480        3.39050        0.98560
Cl         4.73540        5.43880       -1.54520
C          7.84290        2.76560        3.05270
S          8.71330        2.14650        1.66910
C          4.70520        4.48200        4.03970
C          3.91380        4.09470        5.08680
S          4.80780        3.14580        6.26480
C          2.49200        4.11370        5.18100
S          1.74310        3.18050        6.46440
C          0.23680        3.27070        5.67490
C          0.28850        4.03390        4.51180
C          1.56530        4.51990        4.23180
C         -1.05700        3.96730        3.88950
O         -1.47960        4.52540        2.91070
C         -1.82390        3.00730        4.77550
C         -1.04230        2.65740        5.83680
C         -3.13240        2.52260        4.50000
C         -3.66540        1.37110        5.01490
C         -5.01320        1.16460        4.65710
C         -5.85200        0.10330        5.03640
C         -5.34680       -1.02840        5.79720
S         -5.47020       -2.63760        5.15190
C         -4.66740       -3.33240        6.51820
C         -4.48220       -4.80540        6.63540
C         -5.74450       -5.46740        7.19320
C         -4.34160       -2.36260        7.41830
Cl        -3.54210       -2.66710        8.90690
C         -4.71910       -1.05450        7.00960
Cl        -4.47190        0.33020        7.99570
C         -7.17220        0.16880        4.61930
C         -7.67670        1.22200        3.82100
C         -6.81420        2.23490        3.36650
C         -7.27900        3.22590        2.40670
S         -6.50860        3.36090        0.85490
C         -7.64850        4.53300        0.30220
C         -7.60230        5.10730       -1.07270
C         -6.33230        4.73700       -1.82460
C         -8.55650        4.80930        1.28290
C         -8.35170        4.06970        2.47670
Cl        -9.32100        4.28620        3.87880
Cl        -9.84190        5.93210        1.09220
C         -5.49850        2.19360        3.80950
S         -4.25630        3.36820        3.46120
C         -9.06470        1.04510        3.54940
C         -9.57630       -0.06430        4.12110
S         -8.41550       -0.98580        5.01260
H         -9.49010        5.00400       -5.83440
H         -7.66040        4.20210       -7.50640
H         -4.75330        1.44460      -12.01270
H         -3.99830        3.04140      -12.17880
H         -1.94420        2.17900      -11.05430
H         -2.70420        0.59570      -10.86880
H         -2.32920        1.21310      -12.48270
H        -10.39030       -0.81040       -0.08450
H         -9.44000       -0.17980        1.27010
H        -10.26010        2.14580        0.68730
H        -11.24330        1.44870       -0.59760
H        -11.58820        1.04740        1.08830
H         -5.26630       -0.88920       -3.09590
H         -3.24580       -1.91420       -2.36500
H         -3.64900       -3.44440        3.17590
H         -2.64710       -4.88540        2.91120
H         -1.69080       -2.25340        4.14340
H         -2.03200       -3.73700        5.03610
H         -0.68510       -3.68230        3.89110
H          3.07590       -3.10670      -10.04070
H          2.69190       -1.47090       -9.47260
H          0.27960       -1.86260       -9.96970
H          1.27370       -2.06950      -11.41720
H          0.66240       -3.48480      -10.55500
H          3.33810       -3.91720       -4.12920
H          4.29480       -4.73870        0.48250
H          4.65640       -5.59000        6.40350
H          3.50040       -4.52390        5.58190
H          2.59930       -6.83190        5.74960
H          2.85850       -6.38950        4.05830
H          4.00280       -7.45650        4.87870
H          9.06040        0.98080       -6.10070
H          8.51900        2.02540       -4.77210
H         10.87620        2.52180       -5.37960
H         10.78300        1.87930       -3.73590
H         11.32460        0.84340       -5.06100
H          9.33950        0.01090       -0.21910
H          8.92440       -0.03870        4.56090
H          6.51780       -1.99340        9.59530
H          8.13000       -2.33430        8.97370
H          7.15240       -3.17620        6.83900
H          6.53090       -4.07300        8.22590
H          5.53010       -2.84350        7.44470
H          8.59770        7.07110       -1.21220
H          7.10450        6.88320       -2.15280
H          7.45220        8.72580        0.26510
H          7.41300        9.24350       -1.42400
H          5.97130        8.54460       -0.68110
H          4.35610        5.10000        3.23420
H          1.82540        5.09640        3.36330
H         -1.31610        2.01540        6.65320
H         -3.10000        0.69180        5.62420
H         -4.25930       -5.22360        5.65210
H         -3.64060       -5.00250        7.30220
H         -6.59050       -5.27500        6.53780
H         -5.97250       -5.07280        8.17990
H         -5.59940       -6.54140        7.27220
H         -8.47590        4.75050       -1.62970
H         -7.69100        6.19520       -0.99700
H         -6.34120        5.17990       -2.81740
H         -6.25390        3.65780       -1.93070
H         -5.45410        5.09430       -1.29240
H         -9.64570        1.72950        2.96230
H        -10.58720       -0.42050        4.07780
