
  xtb     03012209423D
 energy: -411.619169389615 gnorm: 0.000546799372 xtb: 6.4.1 (unknown)
204227  0     0  0            999 V2000
   -6.5432  -15.3236    3.9080 C   0  0  0  0  0  0  0  0  0  0  0  0
   -5.8370  -14.5575    4.7635 C   0  0  0  0  0  0  0  0  0  0  0  0
   -5.9087  -13.1682    4.4511 C   0  0  0  0  0  0  0  0  0  0  0  0
   -5.3185  -12.0911    5.1318 C   0  0  0  0  0  0  0  0  0  0  0  0
   -4.4226  -12.3053    6.2568 C   0  0  0  0  0  0  0  0  0  0  0  0
   -4.6683  -11.5128    7.7835 S   0  0  0  0  0  0  0  0  0  0  0  0
   -3.2607  -12.2424    8.4758 C   0  0  0  0  0  0  0  0  0  0  0  0
   -2.8890  -12.0082    9.8983 C   0  0  0  0  0  0  0  0  0  0  0  0
   -3.5992  -13.0023   10.8204 C   0  0  0  0  0  0  0  0  0  0  0  0
   -2.6491  -13.0525    7.5658 C   0  0  0  0  0  0  0  0  0  0  0  0
   -1.2181  -13.9439    7.8874 Cl  0  0  0  0  0  0  0  0  0  0  0  0
   -3.3021  -13.0876    6.3050 C   0  0  0  0  0  0  0  0  0  0  0  0
   -2.6835  -13.9665    4.9664 Cl  0  0  0  0  0  0  0  0  0  0  0  0
   -5.6055  -10.8151    4.6646 C   0  0  0  0  0  0  0  0  0  0  0  0
   -6.4208  -10.5802    3.5314 C   0  0  0  0  0  0  0  0  0  0  0  0
   -7.0092  -11.6569    2.8463 C   0  0  0  0  0  0  0  0  0  0  0  0
   -7.8612  -11.4236    1.6931 C   0  0  0  0  0  0  0  0  0  0  0  0
   -7.5744  -12.2337    0.1817 S   0  0  0  0  0  0  0  0  0  0  0  0
   -8.8760  -11.4037   -0.6012 C   0  0  0  0  0  0  0  0  0  0  0  0
   -9.2185  -11.6848   -2.0223 C   0  0  0  0  0  0  0  0  0  0  0  0
   -9.9559  -13.0189   -2.1551 C   0  0  0  0  0  0  0  0  0  0  0  0
   -9.4968  -10.5642    0.2750 C   0  0  0  0  0  0  0  0  0  0  0  0
   -8.9238  -10.5697    1.5749 C   0  0  0  0  0  0  0  0  0  0  0  0
   -9.5782   -9.6465    2.8681 Cl  0  0  0  0  0  0  0  0  0  0  0  0
  -10.8330   -9.5662   -0.1309 Cl  0  0  0  0  0  0  0  0  0  0  0  0
   -6.7267  -12.9315    3.3206 C   0  0  0  0  0  0  0  0  0  0  0  0
   -7.3513  -14.4218    2.6723 S   0  0  0  0  0  0  0  0  0  0  0  0
   -6.4856   -9.2051    3.2054 C   0  0  0  0  0  0  0  0  0  0  0  0
   -5.7848   -8.4070    4.0616 C   0  0  0  0  0  0  0  0  0  0  0  0
   -4.9759   -9.3258    5.3118 S   0  0  0  0  0  0  0  0  0  0  0  0
   -5.6802   -6.9854    3.9790 C   0  0  0  0  0  0  0  0  0  0  0  0
   -6.4453   -6.1709    3.1944 C   0  0  0  0  0  0  0  0  0  0  0  0
   -6.0741   -4.8091    3.2613 C   0  0  0  0  0  0  0  0  0  0  0  0
   -6.6386   -3.7305    2.5534 C   0  0  0  0  0  0  0  0  0  0  0  0
   -7.7866   -3.9379    1.6846 C   0  0  0  0  0  0  0  0  0  0  0  0
   -9.2433   -4.6761    2.2857 S   0  0  0  0  0  0  0  0  0  0  0  0
  -10.0148   -4.6018    0.7400 C   0  0  0  0  0  0  0  0  0  0  0  0
  -11.4142   -5.0719    0.5491 C   0  0  0  0  0  0  0  0  0  0  0  0
  -12.4078   -3.9264    0.7561 C   0  0  0  0  0  0  0  0  0  0  0  0
   -9.1850   -4.0261   -0.1754 C   0  0  0  0  0  0  0  0  0  0  0  0
   -9.6008   -3.7867   -1.8224 Cl  0  0  0  0  0  0  0  0  0  0  0  0
   -7.9206   -3.6522    0.3540 C   0  0  0  0  0  0  0  0  0  0  0  0
   -6.6751   -3.0013   -0.6262 Cl  0  0  0  0  0  0  0  0  0  0  0  0
   -6.0224   -2.4975    2.6983 C   0  0  0  0  0  0  0  0  0  0  0  0
   -4.8851   -2.3052    3.5250 C   0  0  0  0  0  0  0  0  0  0  0  0
   -4.3764   -3.3648    4.3008 C   0  0  0  0  0  0  0  0  0  0  0  0
   -3.2842   -3.1362    5.2287 C   0  0  0  0  0  0  0  0  0  0  0  0
   -1.8612   -4.1343    5.2545 S   0  0  0  0  0  0  0  0  0  0  0  0
   -1.1475   -3.2187    6.5360 C   0  0  0  0  0  0  0  0  0  0  0  0
    0.2121   -3.5302    7.0574 C   0  0  0  0  0  0  0  0  0  0  0  0
    1.2714   -2.6495    6.3895 C   0  0  0  0  0  0  0  0  0  0  0  0
   -1.9746   -2.2013    6.9117 C   0  0  0  0  0  0  0  0  0  0  0  0
   -3.1863   -2.1513    6.1754 C   0  0  0  0  0  0  0  0  0  0  0  0
   -4.4255   -1.0134    6.5174 Cl  0  0  0  0  0  0  0  0  0  0  0  0
   -1.6074   -1.0856    8.1630 Cl  0  0  0  0  0  0  0  0  0  0  0  0
   -4.9682   -4.6068    4.1238 C   0  0  0  0  0  0  0  0  0  0  0  0
   -4.4692   -6.0961    4.8748 S   0  0  0  0  0  0  0  0  0  0  0  0
   -4.3471   -1.0116    3.3827 C   0  0  0  0  0  0  0  0  0  0  0  0
   -5.0546   -0.2052    2.5274 C   0  0  0  0  0  0  0  0  0  0  0  0
   -6.4716   -1.0208    1.8921 S   0  0  0  0  0  0  0  0  0  0  0  0
   -4.6152    1.0583    2.0606 C   0  0  0  0  0  0  0  0  0  0  0  0
   -2.9565    1.4650    2.2947 S   0  0  0  0  0  0  0  0  0  0  0  0
   -3.0558    2.8986    1.3162 C   0  0  0  0  0  0  0  0  0  0  0  0
   -4.3703    3.0993    0.8760 C   0  0  0  0  0  0  0  0  0  0  0  0
   -5.2567    2.0463    1.2959 C   0  0  0  0  0  0  0  0  0  0  0  0
   -6.6004    2.1083    0.9331 C   0  0  0  0  0  0  0  0  0  0  0  0
   -7.0767    3.1575    0.1713 C   0  0  0  0  0  0  0  0  0  0  0  0
   -8.4665    3.1399   -0.1385 N   0  0  0  0  0  4  0  0  0  0  0  0
   -8.9314    4.0218   -0.8507 O   0  0  0  0  0  1  0  0  0  0  0  0
   -9.1442    2.2423    0.3209 O   0  0  0  0  0  0  0  0  0  0  0  0
   -6.2028    4.2106   -0.2700 C   0  0  0  0  0  0  0  0  0  0  0  0
   -6.6496    5.2457   -1.0091 N   0  0  0  0  0  0  0  0  0  0  0  0
   -4.8677    4.1516    0.1050 C   0  0  0  0  0  0  0  0  0  0  0  0
   -1.8341    3.5300    0.9793 C   0  0  0  0  0  0  0  0  0  0  0  0
   -0.6056    3.1084    1.4175 C   0  0  0  0  0  0  0  0  0  0  0  0
    0.4819    3.7220    0.7667 C   0  0  0  0  0  0  0  0  0  0  0  0
    1.8427    3.3824    0.8755 C   0  0  0  0  0  0  0  0  0  0  0  0
    2.2509    2.2532    1.6944 C   0  0  0  0  0  0  0  0  0  0  0  0
    3.4705    2.3915    2.9244 S   0  0  0  0  0  0  0  0  0  0  0  0
    3.2925    0.7367    3.3969 C   0  0  0  0  0  0  0  0  0  0  0  0
    4.1348    0.1339    4.4665 C   0  0  0  0  0  0  0  0  0  0  0  0
    5.3813   -0.5254    3.8708 C   0  0  0  0  0  0  0  0  0  0  0  0
    2.3546    0.1211    2.6224 C   0  0  0  0  0  0  0  0  0  0  0  0
    1.9037   -1.5250    2.7908 Cl  0  0  0  0  0  0  0  0  0  0  0  0
    1.7614    0.9755    1.6571 C   0  0  0  0  0  0  0  0  0  0  0  0
    0.6085    0.4100    0.5154 Cl  0  0  0  0  0  0  0  0  0  0  0  0
    2.7349    4.1214    0.1149 C   0  0  0  0  0  0  0  0  0  0  0  0
    2.3199    5.1590   -0.7567 C   0  0  0  0  0  0  0  0  0  0  0  0
    0.9508    5.4523   -0.9154 C   0  0  0  0  0  0  0  0  0  0  0  0
    0.5133    6.4454   -1.8822 C   0  0  0  0  0  0  0  0  0  0  0  0
   -0.5708    7.7267   -1.4265 S   0  0  0  0  0  0  0  0  0  0  0  0
   -0.5345    8.4296   -3.0077 C   0  0  0  0  0  0  0  0  0  0  0  0
   -1.2614    9.6933   -3.3091 C   0  0  0  0  0  0  0  0  0  0  0  0
   -0.4234   10.9125   -2.9165 C   0  0  0  0  0  0  0  0  0  0  0  0
    0.2745    7.7025   -3.8285 C   0  0  0  0  0  0  0  0  0  0  0  0
    0.8607    6.5714   -3.1999 C   0  0  0  0  0  0  0  0  0  0  0  0
    1.8276    5.4476   -4.0702 Cl  0  0  0  0  0  0  0  0  0  0  0  0
    0.5752    8.0949   -5.4721 Cl  0  0  0  0  0  0  0  0  0  0  0  0
    0.0614    4.7260   -0.1398 C   0  0  0  0  0  0  0  0  0  0  0  0
   -1.6798    4.8217   -0.2020 S   0  0  0  0  0  0  0  0  0  0  0  0
    3.4142    5.7349   -1.4410 C   0  0  0  0  0  0  0  0  0  0  0  0
    4.6054    5.1218   -1.1782 C   0  0  0  0  0  0  0  0  0  0  0  0
    4.4516    3.8544    0.0183 S   0  0  0  0  0  0  0  0  0  0  0  0
    5.8327    5.3521   -1.8694 C   0  0  0  0  0  0  0  0  0  0  0  0
    5.9443    5.9430   -3.0956 C   0  0  0  0  0  0  0  0  0  0  0  0
    7.2632    5.9500   -3.6016 C   0  0  0  0  0  0  0  0  0  0  0  0
    7.7089    6.4807   -4.8273 C   0  0  0  0  0  0  0  0  0  0  0  0
    6.7776    7.1161   -5.7452 C   0  0  0  0  0  0  0  0  0  0  0  0
    5.6968    8.3765   -5.2220 S   0  0  0  0  0  0  0  0  0  0  0  0
    4.9633    8.5115   -6.7825 C   0  0  0  0  0  0  0  0  0  0  0  0
    3.8909    9.5083   -7.0514 C   0  0  0  0  0  0  0  0  0  0  0  0
    4.4820   10.8379   -7.5253 C   0  0  0  0  0  0  0  0  0  0  0  0
    5.5431    7.6371   -7.6521 C   0  0  0  0  0  0  0  0  0  0  0  0
    5.0787    7.4780   -9.2961 Cl  0  0  0  0  0  0  0  0  0  0  0  0
    6.5670    6.8428   -7.0689 C   0  0  0  0  0  0  0  0  0  0  0  0
    7.3705    5.6059   -7.9409 Cl  0  0  0  0  0  0  0  0  0  0  0  0
    9.0614    6.3508   -5.1083 C   0  0  0  0  0  0  0  0  0  0  0  0
    9.9616    5.6900   -4.2356 C   0  0  0  0  0  0  0  0  0  0  0  0
    9.5184    5.1609   -3.0089 C   0  0  0  0  0  0  0  0  0  0  0  0
   10.4623    4.5481   -2.0905 C   0  0  0  0  0  0  0  0  0  0  0  0
   11.9339    5.3791   -1.6615 S   0  0  0  0  0  0  0  0  0  0  0  0
   12.4605    4.0937   -0.6360 C   0  0  0  0  0  0  0  0  0  0  0  0
   13.7493    4.1935    0.0988 C   0  0  0  0  0  0  0  0  0  0  0  0
   13.6117    5.0875    1.3330 C   0  0  0  0  0  0  0  0  0  0  0  0
   11.5349    3.0930   -0.6230 C   0  0  0  0  0  0  0  0  0  0  0  0
   10.4034    3.3432   -1.4460 C   0  0  0  0  0  0  0  0  0  0  0  0
    9.1604    2.1837   -1.6653 Cl  0  0  0  0  0  0  0  0  0  0  0  0
   11.7038    1.6445    0.2828 Cl  0  0  0  0  0  0  0  0  0  0  0  0
    8.1683    5.3064   -2.7195 C   0  0  0  0  0  0  0  0  0  0  0  0
    7.3660    4.7699   -1.2718 S   0  0  0  0  0  0  0  0  0  0  0  0
   11.2734    5.6487   -4.7580 C   0  0  0  0  0  0  0  0  0  0  0  0
   11.4194    6.3188   -5.9410 C   0  0  0  0  0  0  0  0  0  0  0  0
    9.8913    6.9827   -6.5009 S   0  0  0  0  0  0  0  0  0  0  0  0
   12.6048    6.4954   -6.7037 C   0  0  0  0  0  0  0  0  0  0  0  0
   12.5281    6.8898   -8.3782 S   0  0  0  0  0  0  0  0  0  0  0  0
   14.2252    6.8566   -8.5590 C   0  0  0  0  0  0  0  0  0  0  0  0
   14.8706    6.5595   -7.3770 C   0  0  0  0  0  0  0  0  0  0  0  0
   13.9435    6.3634   -6.2913 C   0  0  0  0  0  0  0  0  0  0  0  0
   14.4563    6.1313   -5.0164 C   0  0  0  0  0  0  0  0  0  0  0  0
   15.8184    6.0205   -4.8095 C   0  0  0  0  0  0  0  0  0  0  0  0
   16.2332    5.7699   -3.4760 N   0  0  0  0  0  4  0  0  0  0  0  0
   17.4212    5.8472   -3.1883 O   0  0  0  0  0  1  0  0  0  0  0  0
   15.3807    5.4816   -2.6524 O   0  0  0  0  0  0  0  0  0  0  0  0
   16.7564    6.1683   -5.8931 C   0  0  0  0  0  0  0  0  0  0  0  0
   18.0864    5.9964   -5.7073 N   0  0  0  0  0  0  0  0  0  0  0  0
   16.2527    6.4517   -7.1479 C   0  0  0  0  0  0  0  0  0  0  0  0
   -6.6533  -16.3903    3.9167 H   0  0  0  0  0  0  0  0  0  0  0  0
   -5.2892  -14.9487    5.6005 H   0  0  0  0  0  0  0  0  0  0  0  0
   -3.1628  -10.9903   10.1801 H   0  0  0  0  0  0  0  0  0  0  0  0
   -1.8083  -12.1229   10.0018 H   0  0  0  0  0  0  0  0  0  0  0  0
   -3.3199  -14.0208   10.5629 H   0  0  0  0  0  0  0  0  0  0  0  0
   -4.6776  -12.9017   10.7240 H   0  0  0  0  0  0  0  0  0  0  0  0
   -3.3218  -12.8159   11.8543 H   0  0  0  0  0  0  0  0  0  0  0  0
   -9.8474  -10.8754   -2.3969 H   0  0  0  0  0  0  0  0  0  0  0  0
   -8.3027  -11.7186   -2.6160 H   0  0  0  0  0  0  0  0  0  0  0  0
  -10.1929  -13.2119   -3.1978 H   0  0  0  0  0  0  0  0  0  0  0  0
   -9.3359  -13.8300   -1.7806 H   0  0  0  0  0  0  0  0  0  0  0  0
  -10.8814  -12.9972   -1.5852 H   0  0  0  0  0  0  0  0  0  0  0  0
   -7.0042   -8.8260    2.3460 H   0  0  0  0  0  0  0  0  0  0  0  0
   -7.2482   -6.5342    2.5815 H   0  0  0  0  0  0  0  0  0  0  0  0
  -11.5170   -5.4650   -0.4646 H   0  0  0  0  0  0  0  0  0  0  0  0
  -11.6260   -5.8737    1.2584 H   0  0  0  0  0  0  0  0  0  0  0  0
  -13.4237   -4.2827    0.6089 H   0  0  0  0  0  0  0  0  0  0  0  0
  -12.3198   -3.5273    1.7636 H   0  0  0  0  0  0  0  0  0  0  0  0
  -12.2125   -3.1258    0.0479 H   0  0  0  0  0  0  0  0  0  0  0  0
    0.2238   -3.3544    8.1355 H   0  0  0  0  0  0  0  0  0  0  0  0
    0.4377   -4.5809    6.8709 H   0  0  0  0  0  0  0  0  0  0  0  0
    1.0614   -1.5996    6.5781 H   0  0  0  0  0  0  0  0  0  0  0  0
    2.2551   -2.8863    6.7866 H   0  0  0  0  0  0  0  0  0  0  0  0
    1.2782   -2.8153    5.3153 H   0  0  0  0  0  0  0  0  0  0  0  0
   -3.4387   -0.6893    3.8586 H   0  0  0  0  0  0  0  0  0  0  0  0
   -7.2944    1.3441    1.2481 H   0  0  0  0  0  0  0  0  0  0  0  0
   -6.0009    5.9493   -1.3102 H   0  0  0  0  0  0  0  0  0  0  0  0
   -7.6176    5.2691   -1.2945 H   0  0  0  0  0  0  0  0  0  0  0  0
   -4.2082    4.9469   -0.2040 H   0  0  0  0  0  0  0  0  0  0  0  0
   -0.4939    2.3529    2.1733 H   0  0  0  0  0  0  0  0  0  0  0  0
    3.5447   -0.6167    4.9971 H   0  0  0  0  0  0  0  0  0  0  0  0
    4.4337    0.9104    5.1721 H   0  0  0  0  0  0  0  0  0  0  0  0
    5.9877   -0.9586    4.6614 H   0  0  0  0  0  0  0  0  0  0  0  0
    5.0960   -1.3135    3.1789 H   0  0  0  0  0  0  0  0  0  0  0  0
    5.9778    0.2085    3.3347 H   0  0  0  0  0  0  0  0  0  0  0  0
   -1.4778    9.7273   -4.3784 H   0  0  0  0  0  0  0  0  0  0  0  0
   -2.2039    9.7091   -2.7594 H   0  0  0  0  0  0  0  0  0  0  0  0
   -0.2018   10.8903   -1.8523 H   0  0  0  0  0  0  0  0  0  0  0  0
   -0.9660   11.8265   -3.1417 H   0  0  0  0  0  0  0  0  0  0  0  0
    0.5139   10.9186   -3.4670 H   0  0  0  0  0  0  0  0  0  0  0  0
    3.3278    6.5772   -2.1005 H   0  0  0  0  0  0  0  0  0  0  0  0
    5.0984    6.3234   -3.6356 H   0  0  0  0  0  0  0  0  0  0  0  0
    3.2277    9.1094   -7.8218 H   0  0  0  0  0  0  0  0  0  0  0  0
    3.3108    9.6691   -6.1413 H   0  0  0  0  0  0  0  0  0  0  0  0
    5.1497   11.2452   -6.7700 H   0  0  0  0  0  0  0  0  0  0  0  0
    5.0436   10.6929   -8.4444 H   0  0  0  0  0  0  0  0  0  0  0  0
    3.6867   11.5544   -7.7120 H   0  0  0  0  0  0  0  0  0  0  0  0
   14.0579    3.1915    0.4015 H   0  0  0  0  0  0  0  0  0  0  0  0
   14.5038    4.6111   -0.5706 H   0  0  0  0  0  0  0  0  0  0  0  0
   14.5638    5.1523    1.8520 H   0  0  0  0  0  0  0  0  0  0  0  0
   12.8682    4.6819    2.0157 H   0  0  0  0  0  0  0  0  0  0  0  0
   13.3062    6.0891    1.0395 H   0  0  0  0  0  0  0  0  0  0  0  0
   12.0615    5.0874   -4.2971 H   0  0  0  0  0  0  0  0  0  0  0  0
   14.6629    7.0476   -9.5176 H   0  0  0  0  0  0  0  0  0  0  0  0
   13.8119    6.0666   -4.1549 H   0  0  0  0  0  0  0  0  0  0  0  0
   18.7088    6.1982   -6.4682 H   0  0  0  0  0  0  0  0  0  0  0  0
   18.4441    5.9455   -4.7652 H   0  0  0  0  0  0  0  0  0  0  0  0
   16.9342    6.5942   -7.9724 H   0  0  0  0  0  0  0  0  0  0  0  0
  1  2  2  0  0  0  0
  2  3  1  0  0  0  0
  3  4  2  0  0  0  0
  4  5  1  0  0  0  0
  5  6  1  0  0  0  0
  6  7  1  0  0  0  0
  7  8  1  0  0  0  0
  8  9  1  0  0  0  0
  7 10  2  0  0  0  0
 10 11  1  0  0  0  0
 10 12  1  0  0  0  0
 12 13  1  0  0  0  0
  4 14  1  0  0  0  0
 14 15  2  0  0  0  0
 15 16  1  0  0  0  0
 16 17  1  0  0  0  0
 17 18  1  0  0  0  0
 18 19  1  0  0  0  0
 19 20  1  0  0  0  0
 20 21  1  0  0  0  0
 19 22  2  0  0  0  0
 22 23  1  0  0  0  0
 23 24  1  0  0  0  0
 22 25  1  0  0  0  0
 16 26  2  0  0  0  0
 26 27  1  0  0  0  0
 15 28  1  0  0  0  0
 28 29  2  0  0  0  0
 29 30  1  0  0  0  0
 29 31  1  0  0  0  0
 31 32  2  0  0  0  0
 32 33  1  0  0  0  0
 33 34  2  0  0  0  0
 34 35  1  0  0  0  0
 35 36  1  0  0  0  0
 36 37  1  0  0  0  0
 37 38  1  0  0  0  0
 38 39  1  0  0  0  0
 37 40  2  0  0  0  0
 40 41  1  0  0  0  0
 40 42  1  0  0  0  0
 42 43  1  0  0  0  0
 34 44  1  0  0  0  0
 44 45  2  0  0  0  0
 45 46  1  0  0  0  0
 46 47  1  0  0  0  0
 47 48  1  0  0  0  0
 48 49  1  0  0  0  0
 49 50  1  0  0  0  0
 50 51  1  0  0  0  0
 49 52  2  0  0  0  0
 52 53  1  0  0  0  0
 53 54  1  0  0  0  0
 52 55  1  0  0  0  0
 46 56  2  0  0  0  0
 56 57  1  0  0  0  0
 45 58  1  0  0  0  0
 58 59  2  0  0  0  0
 59 60  1  0  0  0  0
 59 61  1  0  0  0  0
 61 62  1  0  0  0  0
 62 63  1  0  0  0  0
 63 64  2  0  0  0  0
 64 65  1  0  0  0  0
 65 66  1  0  0  0  0
 66 67  2  0  0  0  0
 67 68  1  0  0  0  0
 68 69  1  0  0  0  0
 68 70  2  0  0  0  0
 67 71  1  0  0  0  0
 71 72  1  0  0  0  0
 71 73  2  0  0  0  0
 63 74  1  0  0  0  0
 74 75  2  0  0  0  0
 75 76  1  0  0  0  0
 76 77  2  0  0  0  0
 77 78  1  0  0  0  0
 78 79  1  0  0  0  0
 79 80  1  0  0  0  0
 80 81  1  0  0  0  0
 81 82  1  0  0  0  0
 80 83  2  0  0  0  0
 83 84  1  0  0  0  0
 83 85  1  0  0  0  0
 85 86  1  0  0  0  0
 77 87  1  0  0  0  0
 87 88  2  0  0  0  0
 88 89  1  0  0  0  0
 89 90  1  0  0  0  0
 90 91  1  0  0  0  0
 91 92  1  0  0  0  0
 92 93  1  0  0  0  0
 93 94  1  0  0  0  0
 92 95  2  0  0  0  0
 95 96  1  0  0  0  0
 96 97  1  0  0  0  0
 95 98  1  0  0  0  0
 89 99  2  0  0  0  0
 99100  1  0  0  0  0
 88101  1  0  0  0  0
101102  2  0  0  0  0
102103  1  0  0  0  0
102104  1  0  0  0  0
104105  2  0  0  0  0
105106  1  0  0  0  0
106107  2  0  0  0  0
107108  1  0  0  0  0
108109  1  0  0  0  0
109110  1  0  0  0  0
110111  1  0  0  0  0
111112  1  0  0  0  0
110113  2  0  0  0  0
113114  1  0  0  0  0
113115  1  0  0  0  0
115116  1  0  0  0  0
107117  1  0  0  0  0
117118  2  0  0  0  0
118119  1  0  0  0  0
119120  1  0  0  0  0
120121  1  0  0  0  0
121122  1  0  0  0  0
122123  1  0  0  0  0
123124  1  0  0  0  0
122125  2  0  0  0  0
125126  1  0  0  0  0
126127  1  0  0  0  0
125128  1  0  0  0  0
119129  2  0  0  0  0
129130  1  0  0  0  0
118131  1  0  0  0  0
131132  2  0  0  0  0
132133  1  0  0  0  0
132134  1  0  0  0  0
134135  1  0  0  0  0
135136  1  0  0  0  0
136137  2  0  0  0  0
137138  1  0  0  0  0
138139  1  0  0  0  0
139140  2  0  0  0  0
140141  1  0  0  0  0
141142  1  0  0  0  0
141143  2  0  0  0  0
140144  1  0  0  0  0
144145  1  0  0  0  0
144146  2  0  0  0  0
 27  1  1  0  0  0  0
 57 31  1  0  0  0  0
 65 61  2  0  0  0  0
100 74  1  0  0  0  0
130104  1  0  0  0  0
138134  2  0  0  0  0
 26  3  1  0  0  0  0
 56 33  1  0  0  0  0
 73 64  1  0  0  0  0
 99 76  1  0  0  0  0
129106  1  0  0  0  0
146137  1  0  0  0  0
 12  5  2  0  0  0  0
 30 14  1  0  0  0  0
 42 35  2  0  0  0  0
 60 44  1  0  0  0  0
 85 78  2  0  0  0  0
103 87  1  0  0  0  0
115108  2  0  0  0  0
133117  1  0  0  0  0
 23 17  2  0  0  0  0
 53 47  2  0  0  0  0
 96 90  2  0  0  0  0
126120  2  0  0  0  0
  1147  1  0  0  0  0
  2148  1  0  0  0  0
  8149  1  0  0  0  0
  8150  1  0  0  0  0
  9151  1  0  0  0  0
  9152  1  0  0  0  0
  9153  1  0  0  0  0
 20154  1  0  0  0  0
 20155  1  0  0  0  0
 21156  1  0  0  0  0
 21157  1  0  0  0  0
 21158  1  0  0  0  0
 28159  1  0  0  0  0
 32160  1  0  0  0  0
 38161  1  0  0  0  0
 38162  1  0  0  0  0
 39163  1  0  0  0  0
 39164  1  0  0  0  0
 39165  1  0  0  0  0
 50166  1  0  0  0  0
 50167  1  0  0  0  0
 51168  1  0  0  0  0
 51169  1  0  0  0  0
 51170  1  0  0  0  0
 58171  1  0  0  0  0
 66172  1  0  0  0  0
 72173  1  0  0  0  0
 72174  1  0  0  0  0
 73175  1  0  0  0  0
 75176  1  0  0  0  0
 81177  1  0  0  0  0
 81178  1  0  0  0  0
 82179  1  0  0  0  0
 82180  1  0  0  0  0
 82181  1  0  0  0  0
 93182  1  0  0  0  0
 93183  1  0  0  0  0
 94184  1  0  0  0  0
 94185  1  0  0  0  0
 94186  1  0  0  0  0
101187  1  0  0  0  0
105188  1  0  0  0  0
111189  1  0  0  0  0
111190  1  0  0  0  0
112191  1  0  0  0  0
112192  1  0  0  0  0
112193  1  0  0  0  0
123194  1  0  0  0  0
123195  1  0  0  0  0
124196  1  0  0  0  0
124197  1  0  0  0  0
124198  1  0  0  0  0
131199  1  0  0  0  0
136200  1  0  0  0  0
139201  1  0  0  0  0
145202  1  0  0  0  0
145203  1  0  0  0  0
146204  1  0  0  0  0
M  CHG  1  68   1
M  CHG  1  69  -1
M  CHG  1 141   1
M  CHG  1 142  -1
M  END
