
  xtb     03012211143D
 energy: -402.141580763483 gnorm: 0.000112164517 xtb: 6.4.1 (unknown)
204225  0     0  0            999 V2000
    0.9705   -3.3519    3.4940 C   0  0  0  0  0  0  0  0  0  0  0  0
    2.1431   -4.0179    3.5057 C   0  0  0  0  0  0  0  0  0  0  0  0
    3.2530   -3.1743    3.7977 C   0  0  0  0  0  0  0  0  0  0  0  0
    4.6107   -3.5164    3.8850 C   0  0  0  0  0  0  0  0  0  0  0  0
    5.0759   -4.8754    3.6606 C   0  0  0  0  0  0  0  0  0  0  0  0
    6.3196   -5.1982    2.4873 S   0  0  0  0  0  0  0  0  0  0  0  0
    6.2846   -6.8993    2.8026 C   0  0  0  0  0  0  0  0  0  0  0  0
    7.2199   -7.8338    2.1185 C   0  0  0  0  0  0  0  0  0  0  0  0
    8.5334   -7.9505    2.8959 C   0  0  0  0  0  0  0  0  0  0  0  0
    5.3694   -7.1820    3.7725 C   0  0  0  0  0  0  0  0  0  0  0  0
    5.0579   -8.7645    4.3600 Cl  0  0  0  0  0  0  0  0  0  0  0  0
    4.6790   -6.0380    4.2588 C   0  0  0  0  0  0  0  0  0  0  0  0
    3.5282   -6.1260    5.5299 Cl  0  0  0  0  0  0  0  0  0  0  0  0
    5.5034   -2.4895    4.1659 C   0  0  0  0  0  0  0  0  0  0  0  0
    5.1020   -1.1456    4.3377 C   0  0  0  0  0  0  0  0  0  0  0  0
    3.7468   -0.7975    4.2315 C   0  0  0  0  0  0  0  0  0  0  0  0
    3.3114    0.5839    4.3607 C   0  0  0  0  0  0  0  0  0  0  0  0
    3.9877    1.8384    3.3604 S   0  0  0  0  0  0  0  0  0  0  0  0
    3.0113    3.0630    4.0983 C   0  0  0  0  0  0  0  0  0  0  0  0
    3.1029    4.4954    3.6976 C   0  0  0  0  0  0  0  0  0  0  0  0
    1.8775    4.9489    2.9019 C   0  0  0  0  0  0  0  0  0  0  0  0
    2.2083    2.5139    5.0533 C   0  0  0  0  0  0  0  0  0  0  0  0
    2.3734    1.1105    5.2042 C   0  0  0  0  0  0  0  0  0  0  0  0
    1.5374    0.2137    6.4000 Cl  0  0  0  0  0  0  0  0  0  0  0  0
    1.1139    3.4168    6.0160 Cl  0  0  0  0  0  0  0  0  0  0  0  0
    2.8482   -1.8291    3.9829 C   0  0  0  0  0  0  0  0  0  0  0  0
    1.1282   -1.6611    3.8036 S   0  0  0  0  0  0  0  0  0  0  0  0
    6.2091   -0.2975    4.6075 C   0  0  0  0  0  0  0  0  0  0  0  0
    7.4014   -0.9450    4.6305 C   0  0  0  0  0  0  0  0  0  0  0  0
    7.2244   -2.6714    4.3729 S   0  0  0  0  0  0  0  0  0  0  0  0
    8.7015   -0.3097    4.6377 C   0  0  0  0  0  0  0  0  0  0  0  0
    9.9042   -0.5849    5.8564 S   0  0  0  0  0  0  0  0  0  0  0  0
   10.9369    0.5697    5.1443 C   0  0  0  0  0  0  0  0  0  0  0  0
   10.4019    1.1474    4.0246 C   0  0  0  0  0  0  0  0  0  0  0  0
   11.1640    2.1484    3.2568 C   0  0  0  0  0  0  0  0  0  0  0  0
   12.2413    2.5769    3.5925 O   0  0  0  0  0  0  0  0  0  0  0  0
   10.5331    2.5303    2.1387 O   0  0  0  0  0  0  0  0  0  0  0  0
   11.2104    3.4876    1.3391 C   0  0  0  0  0  0  0  0  0  0  0  0
    9.1080    0.6314    3.7132 C   0  0  0  0  0  0  0  0  0  0  0  0
    8.2552    0.9874    2.5935 C   0  0  0  0  0  0  0  0  0  0  0  0
    7.5628    0.0454    1.9365 C   0  0  0  0  0  0  0  0  0  0  0  0
    6.4857    0.2556    1.0247 C   0  0  0  0  0  0  0  0  0  0  0  0
    5.5789   -0.7020    0.6721 C   0  0  0  0  0  0  0  0  0  0  0  0
    4.5351   -0.2252   -0.1544 C   0  0  0  0  0  0  0  0  0  0  0  0
    3.4119   -0.9233   -0.6354 C   0  0  0  0  0  0  0  0  0  0  0  0
    3.1601   -2.3158   -0.3026 C   0  0  0  0  0  0  0  0  0  0  0  0
    4.4036   -3.5260   -0.4557 S   0  0  0  0  0  0  0  0  0  0  0  0
    3.3357   -4.8099   -0.0100 C   0  0  0  0  0  0  0  0  0  0  0  0
    3.7769   -6.2314    0.0599 C   0  0  0  0  0  0  0  0  0  0  0  0
    5.0241   -6.4977   -0.7714 C   0  0  0  0  0  0  0  0  0  0  0  0
    2.0951   -4.3128    0.2551 C   0  0  0  0  0  0  0  0  0  0  0  0
    0.7580   -5.2921    0.6965 Cl  0  0  0  0  0  0  0  0  0  0  0  0
    1.9908   -2.9057    0.1032 C   0  0  0  0  0  0  0  0  0  0  0  0
    0.5409   -2.0830    0.4976 Cl  0  0  0  0  0  0  0  0  0  0  0  0
    2.5274   -0.2036   -1.4337 C   0  0  0  0  0  0  0  0  0  0  0  0
    2.6688    1.1827   -1.6987 C   0  0  0  0  0  0  0  0  0  0  0  0
    3.7772    1.8822   -1.1921 C   0  0  0  0  0  0  0  0  0  0  0  0
    3.9517    3.3078   -1.4211 C   0  0  0  0  0  0  0  0  0  0  0  0
    2.7257    4.4594   -0.9721 S   0  0  0  0  0  0  0  0  0  0  0  0
    3.6816    5.8076   -1.4948 C   0  0  0  0  0  0  0  0  0  0  0  0
    3.1813    7.2056   -1.3835 C   0  0  0  0  0  0  0  0  0  0  0  0
    2.7152    7.5329    0.0335 C   0  0  0  0  0  0  0  0  0  0  0  0
    4.8748    5.3715   -1.9855 C   0  0  0  0  0  0  0  0  0  0  0  0
    5.0319    3.9585   -1.9457 C   0  0  0  0  0  0  0  0  0  0  0  0
    6.4170    3.1727   -2.5768 Cl  0  0  0  0  0  0  0  0  0  0  0  0
    6.0947    6.4058   -2.6085 Cl  0  0  0  0  0  0  0  0  0  0  0  0
    4.6901    1.1557   -0.4394 C   0  0  0  0  0  0  0  0  0  0  0  0
    6.0955    1.8148    0.3464 S   0  0  0  0  0  0  0  0  0  0  0  0
    1.5855    1.6907   -2.4558 C   0  0  0  0  0  0  0  0  0  0  0  0
    0.6609    0.7403   -2.7786 C   0  0  0  0  0  0  0  0  0  0  0  0
    1.1183   -0.8473   -2.2176 S   0  0  0  0  0  0  0  0  0  0  0  0
   -0.6505    0.9157   -3.3143 C   0  0  0  0  0  0  0  0  0  0  0  0
   -1.3703    2.0723   -3.3776 C   0  0  0  0  0  0  0  0  0  0  0  0
   -2.7320    1.8661   -3.7032 C   0  0  0  0  0  0  0  0  0  0  0  0
   -3.7418    2.8355   -3.8172 C   0  0  0  0  0  0  0  0  0  0  0  0
   -3.4673    4.2446   -3.5942 C   0  0  0  0  0  0  0  0  0  0  0  0
   -2.6774    4.7870   -2.1419 S   0  0  0  0  0  0  0  0  0  0  0  0
   -2.7556    6.4479   -2.6251 C   0  0  0  0  0  0  0  0  0  0  0  0
   -2.1504    7.5177   -1.7854 C   0  0  0  0  0  0  0  0  0  0  0  0
   -0.6244    7.5024   -1.9002 C   0  0  0  0  0  0  0  0  0  0  0  0
   -3.3576    6.5583   -3.8423 C   0  0  0  0  0  0  0  0  0  0  0  0
   -3.6066    8.0466   -4.6589 Cl  0  0  0  0  0  0  0  0  0  0  0  0
   -3.7707    5.3133   -4.3907 C   0  0  0  0  0  0  0  0  0  0  0  0
   -4.4929    5.1876   -5.9395 Cl  0  0  0  0  0  0  0  0  0  0  0  0
   -5.0201    2.3759   -4.1034 C   0  0  0  0  0  0  0  0  0  0  0  0
   -5.3248    1.0054   -4.2902 C   0  0  0  0  0  0  0  0  0  0  0  0
   -4.3119    0.0311   -4.1934 C   0  0  0  0  0  0  0  0  0  0  0  0
   -4.6060   -1.3806   -4.3760 C   0  0  0  0  0  0  0  0  0  0  0  0
   -5.5710   -1.9023   -5.7312 S   0  0  0  0  0  0  0  0  0  0  0  0
   -5.4493   -3.5725   -5.2959 C   0  0  0  0  0  0  0  0  0  0  0  0
   -6.1433   -4.6278   -6.0828 C   0  0  0  0  0  0  0  0  0  0  0  0
   -7.6606   -4.5230   -5.9225 C   0  0  0  0  0  0  0  0  0  0  0  0
   -4.7051   -3.7036   -4.1639 C   0  0  0  0  0  0  0  0  0  0  0  0
   -4.2211   -2.4722   -3.6435 C   0  0  0  0  0  0  0  0  0  0  0  0
   -3.3218   -2.4434   -2.1874 Cl  0  0  0  0  0  0  0  0  0  0  0  0
   -4.3495   -5.2022   -3.4085 Cl  0  0  0  0  0  0  0  0  0  0  0  0
   -3.0328    0.4942   -3.9006 C   0  0  0  0  0  0  0  0  0  0  0  0
   -1.6081   -0.4821   -3.7297 S   0  0  0  0  0  0  0  0  0  0  0  0
   -6.7203    0.8019   -4.4339 C   0  0  0  0  0  0  0  0  0  0  0  0
   -7.4554    1.9418   -4.3328 C   0  0  0  0  0  0  0  0  0  0  0  0
   -6.4537    3.3615   -4.1389 S   0  0  0  0  0  0  0  0  0  0  0  0
   -8.8915    2.0125   -4.2212 C   0  0  0  0  0  0  0  0  0  0  0  0
   -9.8606    3.1088   -5.1545 S   0  0  0  0  0  0  0  0  0  0  0  0
  -11.2896    2.4729   -4.4791 C   0  0  0  0  0  0  0  0  0  0  0  0
  -11.0541    1.4699   -3.5764 C   0  0  0  0  0  0  0  0  0  0  0  0
  -12.1734    0.8270   -2.8668 C   0  0  0  0  0  0  0  0  0  0  0  0
  -13.3358    1.0675   -3.0862 O   0  0  0  0  0  0  0  0  0  0  0  0
  -11.7660   -0.0538   -1.9418 O   0  0  0  0  0  0  0  0  0  0  0  0
  -12.7962   -0.6952   -1.2054 C   0  0  0  0  0  0  0  0  0  0  0  0
   -9.6619    1.2058   -3.4077 C   0  0  0  0  0  0  0  0  0  0  0  0
   -9.0525    0.2350   -2.5148 C   0  0  0  0  0  0  0  0  0  0  0  0
   -7.9755    0.5455   -1.7768 C   0  0  0  0  0  0  0  0  0  0  0  0
   -7.1368   -0.3779   -1.0765 C   0  0  0  0  0  0  0  0  0  0  0  0
   -7.2387   -1.7314   -0.9503 C   0  0  0  0  0  0  0  0  0  0  0  0
   -6.1293   -2.3288   -0.3018 C   0  0  0  0  0  0  0  0  0  0  0  0
   -5.9118   -3.6909   -0.0308 C   0  0  0  0  0  0  0  0  0  0  0  0
   -6.8612   -4.7085   -0.4459 C   0  0  0  0  0  0  0  0  0  0  0  0
   -7.4297   -4.7910   -2.0873 S   0  0  0  0  0  0  0  0  0  0  0  0
   -8.3742   -6.2078   -1.7804 C   0  0  0  0  0  0  0  0  0  0  0  0
   -9.1148   -6.8934   -2.8749 C   0  0  0  0  0  0  0  0  0  0  0  0
   -8.1724   -7.7815   -3.6910 C   0  0  0  0  0  0  0  0  0  0  0  0
   -8.2511   -6.5793   -0.4754 C   0  0  0  0  0  0  0  0  0  0  0  0
   -9.0459   -7.9357    0.2123 Cl  0  0  0  0  0  0  0  0  0  0  0  0
   -7.4009   -5.7308    0.2846 C   0  0  0  0  0  0  0  0  0  0  0  0
   -7.1715   -5.9417    1.9699 Cl  0  0  0  0  0  0  0  0  0  0  0  0
   -4.7231   -4.0248    0.6100 C   0  0  0  0  0  0  0  0  0  0  0  0
   -3.7666   -3.0583    1.0022 C   0  0  0  0  0  0  0  0  0  0  0  0
   -3.9913   -1.6983    0.7478 C   0  0  0  0  0  0  0  0  0  0  0  0
   -3.0048   -0.6992    1.1335 C   0  0  0  0  0  0  0  0  0  0  0  0
   -2.2090    0.3163   -0.0311 S   0  0  0  0  0  0  0  0  0  0  0  0
   -1.2675    1.1040    1.1876 C   0  0  0  0  0  0  0  0  0  0  0  0
   -0.2412    2.1263    0.8396 C   0  0  0  0  0  0  0  0  0  0  0  0
    1.1534    1.6370    1.2308 C   0  0  0  0  0  0  0  0  0  0  0  0
   -1.5684    0.6042    2.4198 C   0  0  0  0  0  0  0  0  0  0  0  0
   -2.5415   -0.4290    2.3896 C   0  0  0  0  0  0  0  0  0  0  0  0
   -3.1020   -1.2219    3.8042 Cl  0  0  0  0  0  0  0  0  0  0  0  0
   -0.8845    1.1725    3.8854 Cl  0  0  0  0  0  0  0  0  0  0  0  0
   -5.1649   -1.3662    0.0866 C   0  0  0  0  0  0  0  0  0  0  0  0
   -5.6488    0.2370   -0.3784 S   0  0  0  0  0  0  0  0  0  0  0  0
   -2.6063   -3.6613    1.5673 C   0  0  0  0  0  0  0  0  0  0  0  0
   -2.6780   -5.0068    1.5952 C   0  0  0  0  0  0  0  0  0  0  0  0
   -4.1526   -5.6341    0.9465 S   0  0  0  0  0  0  0  0  0  0  0  0
   -0.0084   -3.7560    3.3239 H   0  0  0  0  0  0  0  0  0  0  0  0
    2.2296   -5.0715    3.3183 H   0  0  0  0  0  0  0  0  0  0  0  0
    7.4260   -7.4701    1.1110 H   0  0  0  0  0  0  0  0  0  0  0  0
    6.7483   -8.8160    2.0499 H   0  0  0  0  0  0  0  0  0  0  0  0
    9.0130   -6.9778    2.9733 H   0  0  0  0  0  0  0  0  0  0  0  0
    9.2079   -8.6341    2.3876 H   0  0  0  0  0  0  0  0  0  0  0  0
    8.3463   -8.3266    3.8983 H   0  0  0  0  0  0  0  0  0  0  0  0
    3.1802    5.1007    4.6046 H   0  0  0  0  0  0  0  0  0  0  0  0
    4.0053    4.6433    3.1027 H   0  0  0  0  0  0  0  0  0  0  0  0
    0.9685    4.7289    3.4544 H   0  0  0  0  0  0  0  0  0  0  0  0
    1.8357    4.4423    1.9419 H   0  0  0  0  0  0  0  0  0  0  0  0
    1.9281    6.0207    2.7306 H   0  0  0  0  0  0  0  0  0  0  0  0
    6.1232    0.7627    4.7591 H   0  0  0  0  0  0  0  0  0  0  0  0
   11.8985    0.7789    5.5696 H   0  0  0  0  0  0  0  0  0  0  0  0
   11.3652    4.4111    1.9011 H   0  0  0  0  0  0  0  0  0  0  0  0
   12.1828    3.1018    1.0265 H   0  0  0  0  0  0  0  0  0  0  0  0
   10.5729    3.6650    0.4767 H   0  0  0  0  0  0  0  0  0  0  0  0
    8.1460    2.0335    2.3489 H   0  0  0  0  0  0  0  0  0  0  0  0
    7.7509   -0.9984    2.1506 H   0  0  0  0  0  0  0  0  0  0  0  0
    5.6520   -1.7173    1.0169 H   0  0  0  0  0  0  0  0  0  0  0  0
    3.9713   -6.4943    1.1053 H   0  0  0  0  0  0  0  0  0  0  0  0
    2.9517   -6.8615   -0.2822 H   0  0  0  0  0  0  0  0  0  0  0  0
    4.8422   -6.2577   -1.8160 H   0  0  0  0  0  0  0  0  0  0  0  0
    5.3047   -7.5449   -0.6988 H   0  0  0  0  0  0  0  0  0  0  0  0
    5.8507   -5.8861   -0.4163 H   0  0  0  0  0  0  0  0  0  0  0  0
    3.9882    7.8782   -1.6787 H   0  0  0  0  0  0  0  0  0  0  0  0
    2.3481    7.3491   -2.0770 H   0  0  0  0  0  0  0  0  0  0  0  0
    3.5285    7.3915    0.7409 H   0  0  0  0  0  0  0  0  0  0  0  0
    1.8899    6.8843    0.3167 H   0  0  0  0  0  0  0  0  0  0  0  0
    2.3842    8.5664    0.0882 H   0  0  0  0  0  0  0  0  0  0  0  0
    1.4893    2.7227   -2.7367 H   0  0  0  0  0  0  0  0  0  0  0  0
   -0.9494    3.0351   -3.1581 H   0  0  0  0  0  0  0  0  0  0  0  0
   -2.4348    7.3674   -0.7421 H   0  0  0  0  0  0  0  0  0  0  0  0
   -2.5368    8.4821   -2.1182 H   0  0  0  0  0  0  0  0  0  0  0  0
   -0.1977    8.2921   -1.2880 H   0  0  0  0  0  0  0  0  0  0  0  0
   -0.2326    6.5447   -1.5639 H   0  0  0  0  0  0  0  0  0  0  0  0
   -0.3260    7.6606   -2.9339 H   0  0  0  0  0  0  0  0  0  0  0  0
   -5.8839   -4.5280   -7.1391 H   0  0  0  0  0  0  0  0  0  0  0  0
   -5.7962   -5.6006   -5.7314 H   0  0  0  0  0  0  0  0  0  0  0  0
   -7.9293   -4.5909   -4.8710 H   0  0  0  0  0  0  0  0  0  0  0  0
   -8.1507   -5.3259   -6.4663 H   0  0  0  0  0  0  0  0  0  0  0  0
   -8.0137   -3.5706   -6.3106 H   0  0  0  0  0  0  0  0  0  0  0  0
   -7.1736   -0.1630   -4.5615 H   0  0  0  0  0  0  0  0  0  0  0  0
  -12.2488    2.8590   -4.7621 H   0  0  0  0  0  0  0  0  0  0  0  0
  -13.4215   -1.2951   -1.8702 H   0  0  0  0  0  0  0  0  0  0  0  0
  -12.2979   -1.3262   -0.4739 H   0  0  0  0  0  0  0  0  0  0  0  0
  -13.4257    0.0458   -0.7089 H   0  0  0  0  0  0  0  0  0  0  0  0
   -9.4716   -0.7594   -2.5083 H   0  0  0  0  0  0  0  0  0  0  0  0
   -7.6365    1.5729   -1.7494 H   0  0  0  0  0  0  0  0  0  0  0  0
   -8.0838   -2.2892   -1.3079 H   0  0  0  0  0  0  0  0  0  0  0  0
   -9.5719   -6.1493   -3.5301 H   0  0  0  0  0  0  0  0  0  0  0  0
   -9.9048   -7.5034   -2.4338 H   0  0  0  0  0  0  0  0  0  0  0  0
   -7.7415   -8.5528   -3.0580 H   0  0  0  0  0  0  0  0  0  0  0  0
   -7.3647   -7.1870   -4.1108 H   0  0  0  0  0  0  0  0  0  0  0  0
   -8.7159   -8.2590   -4.5018 H   0  0  0  0  0  0  0  0  0  0  0  0
   -0.4599    3.0560    1.3709 H   0  0  0  0  0  0  0  0  0  0  0  0
   -0.2837    2.3254   -0.2323 H   0  0  0  0  0  0  0  0  0  0  0  0
    1.3546    0.6670    0.7860 H   0  0  0  0  0  0  0  0  0  0  0  0
    1.2277    1.5371    2.3087 H   0  0  0  0  0  0  0  0  0  0  0  0
    1.9101    2.3368    0.8878 H   0  0  0  0  0  0  0  0  0  0  0  0
   -1.7631   -3.0916    1.9106 H   0  0  0  0  0  0  0  0  0  0  0  0
   -1.9474   -5.7021    1.9608 H   0  0  0  0  0  0  0  0  0  0  0  0
  1  2  2  0  0  0  0
  2  3  1  0  0  0  0
  3  4  2  0  0  0  0
  4  5  1  0  0  0  0
  5  6  1  0  0  0  0
  6  7  1  0  0  0  0
  7  8  1  0  0  0  0
  8  9  1  0  0  0  0
  7 10  2  0  0  0  0
 10 11  1  0  0  0  0
 10 12  1  0  0  0  0
 12 13  1  0  0  0  0
  4 14  1  0  0  0  0
 14 15  2  0  0  0  0
 15 16  1  0  0  0  0
 16 17  1  0  0  0  0
 17 18  1  0  0  0  0
 18 19  1  0  0  0  0
 19 20  1  0  0  0  0
 20 21  1  0  0  0  0
 19 22  2  0  0  0  0
 22 23  1  0  0  0  0
 23 24  1  0  0  0  0
 22 25  1  0  0  0  0
 16 26  2  0  0  0  0
 26 27  1  0  0  0  0
 15 28  1  0  0  0  0
 28 29  2  0  0  0  0
 29 30  1  0  0  0  0
 29 31  1  0  0  0  0
 31 32  1  0  0  0  0
 32 33  1  0  0  0  0
 33 34  2  0  0  0  0
 34 35  1  0  0  0  0
 35 36  2  0  0  0  0
 35 37  1  0  0  0  0
 37 38  1  0  0  0  0
 34 39  1  0  0  0  0
 39 40  1  0  0  0  0
 40 41  2  0  0  0  0
 41 42  1  0  0  0  0
 42 43  2  0  0  0  0
 43 44  1  0  0  0  0
 44 45  2  0  0  0  0
 45 46  1  0  0  0  0
 46 47  1  0  0  0  0
 47 48  1  0  0  0  0
 48 49  1  0  0  0  0
 49 50  1  0  0  0  0
 48 51  2  0  0  0  0
 51 52  1  0  0  0  0
 51 53  1  0  0  0  0
 53 54  1  0  0  0  0
 45 55  1  0  0  0  0
 55 56  2  0  0  0  0
 56 57  1  0  0  0  0
 57 58  1  0  0  0  0
 58 59  1  0  0  0  0
 59 60  1  0  0  0  0
 60 61  1  0  0  0  0
 61 62  1  0  0  0  0
 60 63  2  0  0  0  0
 63 64  1  0  0  0  0
 64 65  1  0  0  0  0
 63 66  1  0  0  0  0
 57 67  2  0  0  0  0
 67 68  1  0  0  0  0
 56 69  1  0  0  0  0
 69 70  2  0  0  0  0
 70 71  1  0  0  0  0
 70 72  1  0  0  0  0
 72 73  2  0  0  0  0
 73 74  1  0  0  0  0
 74 75  2  0  0  0  0
 75 76  1  0  0  0  0
 76 77  1  0  0  0  0
 77 78  1  0  0  0  0
 78 79  1  0  0  0  0
 79 80  1  0  0  0  0
 78 81  2  0  0  0  0
 81 82  1  0  0  0  0
 81 83  1  0  0  0  0
 83 84  1  0  0  0  0
 75 85  1  0  0  0  0
 85 86  2  0  0  0  0
 86 87  1  0  0  0  0
 87 88  1  0  0  0  0
 88 89  1  0  0  0  0
 89 90  1  0  0  0  0
 90 91  1  0  0  0  0
 91 92  1  0  0  0  0
 90 93  2  0  0  0  0
 93 94  1  0  0  0  0
 94 95  1  0  0  0  0
 93 96  1  0  0  0  0
 87 97  2  0  0  0  0
 97 98  1  0  0  0  0
 86 99  1  0  0  0  0
 99100  2  0  0  0  0
100101  1  0  0  0  0
100102  1  0  0  0  0
102103  1  0  0  0  0
103104  1  0  0  0  0
104105  2  0  0  0  0
105106  1  0  0  0  0
106107  2  0  0  0  0
106108  1  0  0  0  0
108109  1  0  0  0  0
105110  1  0  0  0  0
110111  1  0  0  0  0
111112  2  0  0  0  0
112113  1  0  0  0  0
113114  2  0  0  0  0
114115  1  0  0  0  0
115116  2  0  0  0  0
116117  1  0  0  0  0
117118  1  0  0  0  0
118119  1  0  0  0  0
119120  1  0  0  0  0
120121  1  0  0  0  0
119122  2  0  0  0  0
122123  1  0  0  0  0
122124  1  0  0  0  0
124125  1  0  0  0  0
116126  1  0  0  0  0
126127  2  0  0  0  0
127128  1  0  0  0  0
128129  1  0  0  0  0
129130  1  0  0  0  0
130131  1  0  0  0  0
131132  1  0  0  0  0
132133  1  0  0  0  0
131134  2  0  0  0  0
134135  1  0  0  0  0
135136  1  0  0  0  0
134137  1  0  0  0  0
128138  2  0  0  0  0
138139  1  0  0  0  0
127140  1  0  0  0  0
140141  2  0  0  0  0
141142  1  0  0  0  0
 27  1  1  0  0  0  0
 39 31  2  0  0  0  0
 68 42  1  0  0  0  0
 98 72  1  0  0  0  0
110102  2  0  0  0  0
139113  1  0  0  0  0
 26  3  1  0  0  0  0
 67 44  1  0  0  0  0
 97 74  1  0  0  0  0
138115  1  0  0  0  0
 12  5  2  0  0  0  0
 30 14  1  0  0  0  0
 53 46  2  0  0  0  0
 71 55  1  0  0  0  0
 83 76  2  0  0  0  0
101 85  1  0  0  0  0
124117  2  0  0  0  0
142126  1  0  0  0  0
 23 17  2  0  0  0  0
 64 58  2  0  0  0  0
 94 88  2  0  0  0  0
135129  2  0  0  0  0
  1143  1  0  0  0  0
  2144  1  0  0  0  0
  8145  1  0  0  0  0
  8146  1  0  0  0  0
  9147  1  0  0  0  0
  9148  1  0  0  0  0
  9149  1  0  0  0  0
 20150  1  0  0  0  0
 20151  1  0  0  0  0
 21152  1  0  0  0  0
 21153  1  0  0  0  0
 21154  1  0  0  0  0
 28155  1  0  0  0  0
 33156  1  0  0  0  0
 38157  1  0  0  0  0
 38158  1  0  0  0  0
 38159  1  0  0  0  0
 40160  1  0  0  0  0
 41161  1  0  0  0  0
 43162  1  0  0  0  0
 49163  1  0  0  0  0
 49164  1  0  0  0  0
 50165  1  0  0  0  0
 50166  1  0  0  0  0
 50167  1  0  0  0  0
 61168  1  0  0  0  0
 61169  1  0  0  0  0
 62170  1  0  0  0  0
 62171  1  0  0  0  0
 62172  1  0  0  0  0
 69173  1  0  0  0  0
 73174  1  0  0  0  0
 79175  1  0  0  0  0
 79176  1  0  0  0  0
 80177  1  0  0  0  0
 80178  1  0  0  0  0
 80179  1  0  0  0  0
 91180  1  0  0  0  0
 91181  1  0  0  0  0
 92182  1  0  0  0  0
 92183  1  0  0  0  0
 92184  1  0  0  0  0
 99185  1  0  0  0  0
104186  1  0  0  0  0
109187  1  0  0  0  0
109188  1  0  0  0  0
109189  1  0  0  0  0
111190  1  0  0  0  0
112191  1  0  0  0  0
114192  1  0  0  0  0
120193  1  0  0  0  0
120194  1  0  0  0  0
121195  1  0  0  0  0
121196  1  0  0  0  0
121197  1  0  0  0  0
132198  1  0  0  0  0
132199  1  0  0  0  0
133200  1  0  0  0  0
133201  1  0  0  0  0
133202  1  0  0  0  0
140203  1  0  0  0  0
141204  1  0  0  0  0
M  END
