204

C          0.97050       -3.35190        3.49400
C          2.14310       -4.01790        3.50570
C          3.25300       -3.17430        3.79770
C          4.61070       -3.51640        3.88500
C          5.07590       -4.87540        3.66060
S          6.31960       -5.19820        2.48730
C          6.28460       -6.89930        2.80260
C          7.21990       -7.83380        2.11850
C          8.53340       -7.95050        2.89590
C          5.36940       -7.18200        3.77250
Cl         5.05790       -8.76450        4.36000
C          4.67900       -6.03800        4.25880
Cl         3.52820       -6.12600        5.52990
C          5.50340       -2.48950        4.16590
C          5.10200       -1.14560        4.33770
C          3.74680       -0.79750        4.23150
C          3.31140        0.58390        4.36070
S          3.98770        1.83840        3.36040
C          3.01130        3.06300        4.09830
C          3.10290        4.49540        3.69760
C          1.87750        4.94890        2.90190
C          2.20830        2.51390        5.05330
C          2.37340        1.11050        5.20420
Cl         1.53740        0.21370        6.40000
Cl         1.11390        3.41680        6.01600
C          2.84820       -1.82910        3.98290
S          1.12820       -1.66110        3.80360
C          6.20910       -0.29750        4.60750
C          7.40140       -0.94500        4.63050
S          7.22440       -2.67140        4.37290
C          8.70150       -0.30970        4.63770
S          9.90420       -0.58490        5.85640
C         10.93690        0.56970        5.14430
C         10.40190        1.14740        4.02460
C         11.16400        2.14840        3.25680
O         12.24130        2.57690        3.59250
O         10.53310        2.53030        2.13870
C         11.21040        3.48760        1.33910
C          9.10800        0.63140        3.71320
C          8.25520        0.98740        2.59350
C          7.56280        0.04540        1.93650
C          6.48570        0.25560        1.02470
C          5.57890       -0.70200        0.67210
C          4.53510       -0.22520       -0.15440
C          3.41190       -0.92330       -0.63540
C          3.16010       -2.31580       -0.30260
S          4.40360       -3.52600       -0.45570
C          3.33570       -4.80990       -0.01000
C          3.77690       -6.23140        0.05990
C          5.02410       -6.49770       -0.77140
C          2.09510       -4.31280        0.25510
Cl         0.75800       -5.29210        0.69650
C          1.99080       -2.90570        0.10320
Cl         0.54090       -2.08300        0.49760
C          2.52740       -0.20360       -1.43370
C          2.66880        1.18270       -1.69870
C          3.77720        1.88220       -1.19210
C          3.95170        3.30780       -1.42110
S          2.72570        4.45940       -0.97210
C          3.68160        5.80760       -1.49480
C          3.18130        7.20560       -1.38350
C          2.71520        7.53290        0.03350
C          4.87480        5.37150       -1.98550
C          5.03190        3.95850       -1.94570
Cl         6.41700        3.17270       -2.57680
Cl         6.09470        6.40580       -2.60850
C          4.69010        1.15570       -0.43940
S          6.09550        1.81480        0.34640
C          1.58550        1.69070       -2.45580
C          0.66090        0.74030       -2.77860
S          1.11830       -0.84730       -2.21760
C         -0.65050        0.91570       -3.31430
C         -1.37030        2.07230       -3.37760
C         -2.73200        1.86610       -3.70320
C         -3.74180        2.83550       -3.81720
C         -3.46730        4.24460       -3.59420
S         -2.67740        4.78700       -2.14190
C         -2.75560        6.44790       -2.62510
C         -2.15040        7.51770       -1.78540
C         -0.62440        7.50240       -1.90020
C         -3.35760        6.55830       -3.84230
Cl        -3.60660        8.04660       -4.65890
C         -3.77070        5.31330       -4.39070
Cl        -4.49290        5.18760       -5.93950
C         -5.02010        2.37590       -4.10340
C         -5.32480        1.00540       -4.29020
C         -4.31190        0.03110       -4.19340
C         -4.60600       -1.38060       -4.37600
S         -5.57100       -1.90230       -5.73120
C         -5.44930       -3.57250       -5.29590
C         -6.14330       -4.62780       -6.08280
C         -7.66060       -4.52300       -5.92250
C         -4.70510       -3.70360       -4.16390
C         -4.22110       -2.47220       -3.64350
Cl        -3.32180       -2.44340       -2.18740
Cl        -4.34950       -5.20220       -3.40850
C         -3.03280        0.49420       -3.90060
S         -1.60810       -0.48210       -3.72970
C         -6.72030        0.80190       -4.43390
C         -7.45540        1.94180       -4.33280
S         -6.45370        3.36150       -4.13890
C         -8.89150        2.01250       -4.22120
S         -9.86060        3.10880       -5.15450
C        -11.28960        2.47290       -4.47910
C        -11.05410        1.46990       -3.57640
C        -12.17340        0.82700       -2.86680
O        -13.33580        1.06750       -3.08620
O        -11.76600       -0.05380       -1.94180
C        -12.79620       -0.69520       -1.20540
C         -9.66190        1.20580       -3.40770
C         -9.05250        0.23500       -2.51480
C         -7.97550        0.54550       -1.77680
C         -7.13680       -0.37790       -1.07650
C         -7.23870       -1.73140       -0.95030
C         -6.12930       -2.32880       -0.30180
C         -5.91180       -3.69090       -0.03080
C         -6.86120       -4.70850       -0.44590
S         -7.42970       -4.79100       -2.08730
C         -8.37420       -6.20780       -1.78040
C         -9.11480       -6.89340       -2.87490
C         -8.17240       -7.78150       -3.69100
C         -8.25110       -6.57930       -0.47540
Cl        -9.04590       -7.93570        0.21230
C         -7.40090       -5.73080        0.28460
Cl        -7.17150       -5.94170        1.96990
C         -4.72310       -4.02480        0.61000
C         -3.76660       -3.05830        1.00220
C         -3.99130       -1.69830        0.74780
C         -3.00480       -0.69920        1.13350
S         -2.20900        0.31630       -0.03110
C         -1.26750        1.10400        1.18760
C         -0.24120        2.12630        0.83960
C          1.15340        1.63700        1.23080
C         -1.56840        0.60420        2.41980
C         -2.54150       -0.42900        2.38960
Cl        -3.10200       -1.22190        3.80420
Cl        -0.88450        1.17250        3.88540
C         -5.16490       -1.36620        0.08660
S         -5.64880        0.23700       -0.37840
C         -2.60630       -3.66130        1.56730
C         -2.67800       -5.00680        1.59520
S         -4.15260       -5.63410        0.94650
H         -0.00840       -3.75600        3.32390
H          2.22960       -5.07150        3.31830
H          7.42600       -7.47010        1.11100
H          6.74830       -8.81600        2.04990
H          9.01300       -6.97780        2.97330
H          9.20790       -8.63410        2.38760
H          8.34630       -8.32660        3.89830
H          3.18020        5.10070        4.60460
H          4.00530        4.64330        3.10270
H          0.96850        4.72890        3.45440
H          1.83570        4.44230        1.94190
H          1.92810        6.02070        2.73060
H          6.12320        0.76270        4.75910
H         11.89850        0.77890        5.56960
H         11.36520        4.41110        1.90110
H         12.18280        3.10180        1.02650
H         10.57290        3.66500        0.47670
H          8.14600        2.03350        2.34890
H          7.75090       -0.99840        2.15060
H          5.65200       -1.71730        1.01690
H          3.97130       -6.49430        1.10530
H          2.95170       -6.86150       -0.28220
H          4.84220       -6.25770       -1.81600
H          5.30470       -7.54490       -0.69880
H          5.85070       -5.88610       -0.41630
H          3.98820        7.87820       -1.67870
H          2.34810        7.34910       -2.07700
H          3.52850        7.39150        0.74090
H          1.88990        6.88430        0.31670
H          2.38420        8.56640        0.08820
H          1.48930        2.72270       -2.73670
H         -0.94940        3.03510       -3.15810
H         -2.43480        7.36740       -0.74210
H         -2.53680        8.48210       -2.11820
H         -0.19770        8.29210       -1.28800
H         -0.23260        6.54470       -1.56390
H         -0.32600        7.66060       -2.93390
H         -5.88390       -4.52800       -7.13910
H         -5.79620       -5.60060       -5.73140
H         -7.92930       -4.59090       -4.87100
H         -8.15070       -5.32590       -6.46630
H         -8.01370       -3.57060       -6.31060
H         -7.17360       -0.16300       -4.56150
H        -12.24880        2.85900       -4.76210
H        -13.42150       -1.29510       -1.87020
H        -12.29790       -1.32620       -0.47390
H        -13.42570        0.04580       -0.70890
H         -9.47160       -0.75940       -2.50830
H         -7.63650        1.57290       -1.74940
H         -8.08380       -2.28920       -1.30790
H         -9.57190       -6.14930       -3.53010
H         -9.90480       -7.50340       -2.43380
H         -7.74150       -8.55280       -3.05800
H         -7.36470       -7.18700       -4.11080
H         -8.71590       -8.25900       -4.50180
H         -0.45990        3.05600        1.37090
H         -0.28370        2.32540       -0.23230
H          1.35460        0.66700        0.78600
H          1.22770        1.53710        2.30870
H          1.91010        2.33680        0.88780
H         -1.76310       -3.09160        1.91060
H         -1.94740       -5.70210        1.96080
