
  xtb     03032211313D
 energy: -448.013993556266 gnorm: 0.000597651011 xtb: 6.4.1 (unknown)
227252  0     0  0            999 V2000
    1.1845   -5.4161   11.4467 C   0  0  0  0  0  0  0  0  0  0  0  0
    0.0471   -5.8078   10.8371 C   0  0  0  0  0  0  0  0  0  0  0  0
    0.1437   -5.7790    9.4153 C   0  0  0  0  0  0  0  0  0  0  0  0
   -0.8539   -6.0702    8.4716 C   0  0  0  0  0  0  0  0  0  0  0  0
   -2.2123   -6.3925    8.8785 C   0  0  0  0  0  0  0  0  0  0  0  0
   -3.0083   -7.8343    8.3241 S   0  0  0  0  0  0  0  0  0  0  0  0
   -4.4570   -7.4614    9.1935 C   0  0  0  0  0  0  0  0  0  0  0  0
   -5.6569   -8.3381    9.1045 C   0  0  0  0  0  0  0  0  0  0  0  0
   -6.4858   -7.9999    7.8630 C   0  0  0  0  0  0  0  0  0  0  0  0
   -4.3210   -6.2788    9.8575 C   0  0  0  0  0  0  0  0  0  0  0  0
   -5.5545   -5.5737   10.8201 Cl  0  0  0  0  0  0  0  0  0  0  0  0
   -3.0479   -5.6722    9.6860 C   0  0  0  0  0  0  0  0  0  0  0  0
   -2.6505   -4.1478   10.3677 Cl  0  0  0  0  0  0  0  0  0  0  0  0
   -0.4931   -6.0077    7.1322 C   0  0  0  0  0  0  0  0  0  0  0  0
    0.8055   -5.6381    6.7091 C   0  0  0  0  0  0  0  0  0  0  0  0
    1.7950   -5.3030    7.6492 C   0  0  0  0  0  0  0  0  0  0  0  0
    3.1087   -4.8585    7.2121 C   0  0  0  0  0  0  0  0  0  0  0  0
    3.2664   -3.5576    6.0637 S   0  0  0  0  0  0  0  0  0  0  0  0
    4.9943   -3.6480    6.0725 C   0  0  0  0  0  0  0  0  0  0  0  0
    5.8116   -2.7053    5.2614 C   0  0  0  0  0  0  0  0  0  0  0  0
    5.8110   -1.3060    5.8793 C   0  0  0  0  0  0  0  0  0  0  0  0
    5.4093   -4.6257    6.9260 C   0  0  0  0  0  0  0  0  0  0  0  0
    4.3459   -5.3157    7.5704 C   0  0  0  0  0  0  0  0  0  0  0  0
    4.6197   -6.6462    8.6146 Cl  0  0  0  0  0  0  0  0  0  0  0  0
    7.0562   -5.0198    7.2055 Cl  0  0  0  0  0  0  0  0  0  0  0  0
    1.4374   -5.3876    8.9894 C   0  0  0  0  0  0  0  0  0  0  0  0
    2.4538   -5.0038   10.3485 S   0  0  0  0  0  0  0  0  0  0  0  0
    0.9215   -5.6508    5.2996 C   0  0  0  0  0  0  0  0  0  0  0  0
   -0.2379   -5.9729    4.6572 C   0  0  0  0  0  0  0  0  0  0  0  0
   -1.5436   -6.3022    5.7729 S   0  0  0  0  0  0  0  0  0  0  0  0
   -0.4037   -5.9907    3.2381 C   0  0  0  0  0  0  0  0  0  0  0  0
    0.6116   -5.9987    2.3270 C   0  0  0  0  0  0  0  0  0  0  0  0
    0.1724   -5.8567    0.9921 C   0  0  0  0  0  0  0  0  0  0  0  0
    0.9693   -5.7461   -0.1588 C   0  0  0  0  0  0  0  0  0  0  0  0
    2.4165   -5.6366   -0.0719 C   0  0  0  0  0  0  0  0  0  0  0  0
    3.4798   -6.6278   -1.0210 S   0  0  0  0  0  0  0  0  0  0  0  0
    4.8899   -5.8198   -0.4234 C   0  0  0  0  0  0  0  0  0  0  0  0
    6.2573   -6.2470   -0.8292 C   0  0  0  0  0  0  0  0  0  0  0  0
    6.7810   -7.3535    0.0895 C   0  0  0  0  0  0  0  0  0  0  0  0
    4.5380   -4.8455    0.4629 C   0  0  0  0  0  0  0  0  0  0  0  0
    5.6657   -3.8280    1.2577 Cl  0  0  0  0  0  0  0  0  0  0  0  0
    3.1360   -4.7317    0.6603 C   0  0  0  0  0  0  0  0  0  0  0  0
    2.4360   -3.5142    1.6513 Cl  0  0  0  0  0  0  0  0  0  0  0  0
    0.3083   -5.5848   -1.3642 C   0  0  0  0  0  0  0  0  0  0  0  0
   -1.0995   -5.4590   -1.4618 C   0  0  0  0  0  0  0  0  0  0  0  0
   -1.9005   -5.5730   -0.3081 C   0  0  0  0  0  0  0  0  0  0  0  0
   -3.3350   -5.3743   -0.3863 C   0  0  0  0  0  0  0  0  0  0  0  0
   -4.1507   -4.2959    0.7078 S   0  0  0  0  0  0  0  0  0  0  0  0
   -5.6737   -4.5219   -0.0770 C   0  0  0  0  0  0  0  0  0  0  0  0
   -6.8886   -3.7848    0.3672 C   0  0  0  0  0  0  0  0  0  0  0  0
   -6.9333   -2.3811   -0.2409 C   0  0  0  0  0  0  0  0  0  0  0  0
   -5.5438   -5.3865   -1.1232 C   0  0  0  0  0  0  0  0  0  0  0  0
   -4.2240   -5.8778   -1.2982 C   0  0  0  0  0  0  0  0  0  0  0  0
   -3.8368   -7.0601   -2.4824 Cl  0  0  0  0  0  0  0  0  0  0  0  0
   -6.8408   -5.8515   -2.1459 Cl  0  0  0  0  0  0  0  0  0  0  0  0
   -1.2377   -5.7683    0.8987 C   0  0  0  0  0  0  0  0  0  0  0  0
   -1.9741   -5.8699    2.4749 S   0  0  0  0  0  0  0  0  0  0  0  0
   -1.4894   -4.9942   -2.7418 C   0  0  0  0  0  0  0  0  0  0  0  0
   -0.4391   -4.7786   -3.5867 C   0  0  0  0  0  0  0  0  0  0  0  0
    1.0901   -5.2555   -2.8820 S   0  0  0  0  0  0  0  0  0  0  0  0
   -0.4509   -3.9210   -4.7269 C   0  0  0  0  0  0  0  0  0  0  0  0
   -1.5360   -3.3814   -5.3555 C   0  0  0  0  0  0  0  0  0  0  0  0
   -1.2502   -2.1646   -6.0236 C   0  0  0  0  0  0  0  0  0  0  0  0
   -2.1632   -1.2176   -6.5333 C   0  0  0  0  0  0  0  0  0  0  0  0
   -3.5751   -1.5085   -6.7043 C   0  0  0  0  0  0  0  0  0  0  0  0
   -4.5154   -2.3463   -5.5030 S   0  0  0  0  0  0  0  0  0  0  0  0
   -5.9750   -2.2147   -6.4192 C   0  0  0  0  0  0  0  0  0  0  0  0
   -7.2550   -2.7889   -5.9181 C   0  0  0  0  0  0  0  0  0  0  0  0
   -7.3877   -2.6667   -4.4036 C   0  0  0  0  0  0  0  0  0  0  0  0
   -5.7313   -1.5713   -7.5958 C   0  0  0  0  0  0  0  0  0  0  0  0
   -6.9315   -1.2639   -8.7841 Cl  0  0  0  0  0  0  0  0  0  0  0  0
   -4.3789   -1.1688   -7.7611 C   0  0  0  0  0  0  0  0  0  0  0  0
   -3.8277   -0.4174   -9.1988 Cl  0  0  0  0  0  0  0  0  0  0  0  0
   -1.6594    0.0575   -6.7743 C   0  0  0  0  0  0  0  0  0  0  0  0
   -0.2882    0.3901   -6.6376 C   0  0  0  0  0  0  0  0  0  0  0  0
    0.6335   -0.5730   -6.2033 C   0  0  0  0  0  0  0  0  0  0  0  0
    1.9950   -0.2446   -5.7977 C   0  0  0  0  0  0  0  0  0  0  0  0
    3.3435   -1.2008   -6.3347 S   0  0  0  0  0  0  0  0  0  0  0  0
    4.4505   -0.3852   -5.2849 C   0  0  0  0  0  0  0  0  0  0  0  0
    5.8796   -0.7932   -5.2052 C   0  0  0  0  0  0  0  0  0  0  0  0
    6.0432   -2.0160   -4.2992 C   0  0  0  0  0  0  0  0  0  0  0  0
    3.7968    0.5675   -4.5639 C   0  0  0  0  0  0  0  0  0  0  0  0
    2.4090    0.6585   -4.8551 C   0  0  0  0  0  0  0  0  0  0  0  0
    1.4020    1.7744   -4.0195 Cl  0  0  0  0  0  0  0  0  0  0  0  0
    4.5415    1.5660   -3.3844 Cl  0  0  0  0  0  0  0  0  0  0  0  0
    0.1234   -1.8311   -5.9208 C   0  0  0  0  0  0  0  0  0  0  0  0
    1.0302   -3.0766   -5.1213 S   0  0  0  0  0  0  0  0  0  0  0  0
   -0.0609    1.7802   -6.7348 C   0  0  0  0  0  0  0  0  0  0  0  0
   -1.2109    2.5145   -6.7743 C   0  0  0  0  0  0  0  0  0  0  0  0
   -2.6254    1.5003   -6.9702 S   0  0  0  0  0  0  0  0  0  0  0  0
   -1.3063    3.8503   -6.2844 C   0  0  0  0  0  0  0  0  0  0  0  0
   -2.3795    4.4190   -5.6615 C   0  0  0  0  0  0  0  0  0  0  0  0
   -2.0199    5.4480   -4.7522 C   0  0  0  0  0  0  0  0  0  0  0  0
   -2.8254    6.0303   -3.7536 C   0  0  0  0  0  0  0  0  0  0  0  0
   -4.2624    5.8425   -3.7687 C   0  0  0  0  0  0  0  0  0  0  0  0
   -5.1404    5.3490   -2.3501 S   0  0  0  0  0  0  0  0  0  0  0  0
   -6.6481    5.3173   -3.1978 C   0  0  0  0  0  0  0  0  0  0  0  0
   -7.9179    4.9907   -2.4934 C   0  0  0  0  0  0  0  0  0  0  0  0
   -8.4557    6.2134   -1.7463 C   0  0  0  0  0  0  0  0  0  0  0  0
   -6.4698    5.6874   -4.4976 C   0  0  0  0  0  0  0  0  0  0  0  0
   -7.7407    5.7908   -5.6468 Cl  0  0  0  0  0  0  0  0  0  0  0  0
   -5.1193    5.9772   -4.8283 C   0  0  0  0  0  0  0  0  0  0  0  0
   -4.6495    6.5179   -6.3876 Cl  0  0  0  0  0  0  0  0  0  0  0  0
   -2.1636    6.6889   -2.7216 C   0  0  0  0  0  0  0  0  0  0  0  0
   -0.7577    6.8431   -2.6860 C   0  0  0  0  0  0  0  0  0  0  0  0
    0.0359    6.3483   -3.7297 C   0  0  0  0  0  0  0  0  0  0  0  0
    1.4889    6.3595   -3.6794 C   0  0  0  0  0  0  0  0  0  0  0  0
    2.3361    5.6426   -2.3399 S   0  0  0  0  0  0  0  0  0  0  0  0
    3.8813    5.9077   -3.0754 C   0  0  0  0  0  0  0  0  0  0  0  0
    5.1376    5.4978   -2.3907 C   0  0  0  0  0  0  0  0  0  0  0  0
    5.2198    6.0604   -0.9735 C   0  0  0  0  0  0  0  0  0  0  0  0
    3.7294    6.5132   -4.2867 C   0  0  0  0  0  0  0  0  0  0  0  0
    2.3743    6.7586   -4.6390 C   0  0  0  0  0  0  0  0  0  0  0  0
    1.9177    7.5368   -6.0959 Cl  0  0  0  0  0  0  0  0  0  0  0  0
    5.0327    6.9458   -5.3159 Cl  0  0  0  0  0  0  0  0  0  0  0  0
   -0.6203    5.6587   -4.7367 C   0  0  0  0  0  0  0  0  0  0  0  0
    0.1910    4.6923   -5.9292 S   0  0  0  0  0  0  0  0  0  0  0  0
   -0.3143    7.4133   -1.4672 C   0  0  0  0  0  0  0  0  0  0  0  0
   -1.3170    7.6532   -0.5867 C   0  0  0  0  0  0  0  0  0  0  0  0
   -2.8943    7.2998   -1.2588 S   0  0  0  0  0  0  0  0  0  0  0  0
   -1.1214    8.0082    0.8061 C   0  0  0  0  0  0  0  0  0  0  0  0
   -1.6519    9.1406    1.4542 C   0  0  0  0  0  0  0  0  0  0  0  0
   -1.1814    9.2925    2.7290 C   0  0  0  0  0  0  0  0  0  0  0  0
   -1.6150   10.5879    3.8119 S   0  0  0  0  0  0  0  0  0  0  0  0
   -0.6092   10.1794    5.2656 C   0  0  0  0  0  0  0  0  0  0  0  0
   -0.0706    8.0286    3.1587 S   0  0  0  0  0  0  0  0  0  0  0  0
   -0.2611    7.2699    1.6026 C   0  0  0  0  0  0  0  0  0  0  0  0
    0.3888    6.0238    1.3274 C   0  0  0  0  0  0  0  0  0  0  0  0
   -0.1225    5.0655    0.5280 C   0  0  0  0  0  0  0  0  0  0  0  0
    0.5205    3.8393    0.1900 C   0  0  0  0  0  0  0  0  0  0  0  0
   -0.0401    2.7936   -0.4888 C   0  0  0  0  0  0  0  0  0  0  0  0
    0.8327    1.6945   -0.6857 C   0  0  0  0  0  0  0  0  0  0  0  0
    0.5639    0.4445   -1.2787 C   0  0  0  0  0  0  0  0  0  0  0  0
   -0.7425    0.1169   -1.8262 C   0  0  0  0  0  0  0  0  0  0  0  0
   -1.5759    1.2037   -2.9050 S   0  0  0  0  0  0  0  0  0  0  0  0
   -2.9601    0.1707   -3.0233 C   0  0  0  0  0  0  0  0  0  0  0  0
   -4.1711    0.5914   -3.7802 C   0  0  0  0  0  0  0  0  0  0  0  0
   -4.6128    2.0028   -3.3984 C   0  0  0  0  0  0  0  0  0  0  0  0
   -2.7523   -0.9655   -2.3016 C   0  0  0  0  0  0  0  0  0  0  0  0
   -3.8791   -2.2514   -2.1860 Cl  0  0  0  0  0  0  0  0  0  0  0  0
   -1.5063   -1.0001   -1.6187 C   0  0  0  0  0  0  0  0  0  0  0  0
   -1.1142   -2.2771   -0.5395 Cl  0  0  0  0  0  0  0  0  0  0  0  0
    1.6153   -0.4682   -1.3215 C   0  0  0  0  0  0  0  0  0  0  0  0
    2.9000   -0.1986   -0.7948 C   0  0  0  0  0  0  0  0  0  0  0  0
    3.1522    1.0299   -0.1668 C   0  0  0  0  0  0  0  0  0  0  0  0
    4.4490    1.3181    0.4245 C   0  0  0  0  0  0  0  0  0  0  0  0
    5.3718    2.7081   -0.0493 S   0  0  0  0  0  0  0  0  0  0  0  0
    6.6673    2.3136    1.0293 C   0  0  0  0  0  0  0  0  0  0  0  0
    7.8860    3.1661    1.1027 C   0  0  0  0  0  0  0  0  0  0  0  0
    8.6325    3.1928   -0.2315 C   0  0  0  0  0  0  0  0  0  0  0  0
    6.3827    1.1678    1.7093 C   0  0  0  0  0  0  0  0  0  0  0  0
    5.1228    0.6024    1.3732 C   0  0  0  0  0  0  0  0  0  0  0  0
    4.4889   -0.7899    2.1435 Cl  0  0  0  0  0  0  0  0  0  0  0  0
    7.4299    0.4510    2.8644 Cl  0  0  0  0  0  0  0  0  0  0  0  0
    2.1153    1.9508   -0.1396 C   0  0  0  0  0  0  0  0  0  0  0  0
    2.1909    3.5200    0.6101 S   0  0  0  0  0  0  0  0  0  0  0  0
    3.8097   -1.2674   -1.0435 C   0  0  0  0  0  0  0  0  0  0  0  0
    3.2442   -2.2883   -1.7194 C   0  0  0  0  0  0  0  0  0  0  0  0
    1.5771   -2.0289   -2.0850 S   0  0  0  0  0  0  0  0  0  0  0  0
    1.3758   -5.3453   12.4996 H   0  0  0  0  0  0  0  0  0  0  0  0
   -0.8352   -6.1188   11.3649 H   0  0  0  0  0  0  0  0  0  0  0  0
   -5.3412   -9.3816    9.0572 H   0  0  0  0  0  0  0  0  0  0  0  0
   -6.2636   -8.1950   10.0006 H   0  0  0  0  0  0  0  0  0  0  0  0
   -7.3561   -8.6482    7.8075 H   0  0  0  0  0  0  0  0  0  0  0  0
   -5.8897   -8.1350    6.9636 H   0  0  0  0  0  0  0  0  0  0  0  0
   -6.8221   -6.9670    7.9047 H   0  0  0  0  0  0  0  0  0  0  0  0
    5.4057   -2.6500    4.2493 H   0  0  0  0  0  0  0  0  0  0  0  0
    6.8327   -3.0862    5.2054 H   0  0  0  0  0  0  0  0  0  0  0  0
    6.4132   -0.6332    5.2757 H   0  0  0  0  0  0  0  0  0  0  0  0
    6.2223   -1.3356    6.8854 H   0  0  0  0  0  0  0  0  0  0  0  0
    4.7965   -0.9167    5.9274 H   0  0  0  0  0  0  0  0  0  0  0  0
    1.8274   -5.4066    4.7788 H   0  0  0  0  0  0  0  0  0  0  0  0
    1.6451   -6.1113    2.5951 H   0  0  0  0  0  0  0  0  0  0  0  0
    6.2317   -6.6098   -1.8579 H   0  0  0  0  0  0  0  0  0  0  0  0
    6.9245   -5.3842   -0.7771 H   0  0  0  0  0  0  0  0  0  0  0  0
    6.1253   -8.2198    0.0482 H   0  0  0  0  0  0  0  0  0  0  0  0
    6.8271   -7.0004    1.1166 H   0  0  0  0  0  0  0  0  0  0  0  0
    7.7779   -7.6548   -0.2203 H   0  0  0  0  0  0  0  0  0  0  0  0
   -7.7722   -4.3461    0.0575 H   0  0  0  0  0  0  0  0  0  0  0  0
   -6.8852   -3.7084    1.4558 H   0  0  0  0  0  0  0  0  0  0  0  0
   -6.9550   -2.4411   -1.3259 H   0  0  0  0  0  0  0  0  0  0  0  0
   -6.0548   -1.8144    0.0575 H   0  0  0  0  0  0  0  0  0  0  0  0
   -7.8220   -1.8559    0.0987 H   0  0  0  0  0  0  0  0  0  0  0  0
   -2.4956   -4.7151   -2.9907 H   0  0  0  0  0  0  0  0  0  0  0  0
   -2.5196   -3.8003   -5.2654 H   0  0  0  0  0  0  0  0  0  0  0  0
   -8.0803   -2.2764   -6.4169 H   0  0  0  0  0  0  0  0  0  0  0  0
   -7.3051   -3.8462   -6.1979 H   0  0  0  0  0  0  0  0  0  0  0  0
   -7.3624   -1.6217   -4.1023 H   0  0  0  0  0  0  0  0  0  0  0  0
   -8.3269   -3.1021   -4.0731 H   0  0  0  0  0  0  0  0  0  0  0  0
   -6.5715   -3.1906   -3.9101 H   0  0  0  0  0  0  0  0  0  0  0  0
    6.2453   -1.0316   -6.2053 H   0  0  0  0  0  0  0  0  0  0  0  0
    6.4612    0.0406   -4.8080 H   0  0  0  0  0  0  0  0  0  0  0  0
    5.7013   -1.7860   -3.2933 H   0  0  0  0  0  0  0  0  0  0  0  0
    7.0879   -2.3119   -4.2567 H   0  0  0  0  0  0  0  0  0  0  0  0
    5.4579   -2.8484   -4.6826 H   0  0  0  0  0  0  0  0  0  0  0  0
    0.9136    2.2266   -6.6659 H   0  0  0  0  0  0  0  0  0  0  0  0
   -3.3756    4.0258   -5.7567 H   0  0  0  0  0  0  0  0  0  0  0  0
   -8.6516    4.6581   -3.2296 H   0  0  0  0  0  0  0  0  0  0  0  0
   -7.7407    4.1811   -1.7830 H   0  0  0  0  0  0  0  0  0  0  0  0
   -9.3798    5.9614   -1.2333 H   0  0  0  0  0  0  0  0  0  0  0  0
   -7.7294    6.5554   -1.0128 H   0  0  0  0  0  0  0  0  0  0  0  0
   -8.6538    7.0237   -2.4433 H   0  0  0  0  0  0  0  0  0  0  0  0
    5.9818    5.8480   -2.9871 H   0  0  0  0  0  0  0  0  0  0  0  0
    5.1810    4.4063   -2.3420 H   0  0  0  0  0  0  0  0  0  0  0  0
    6.1533    5.7579   -0.5075 H   0  0  0  0  0  0  0  0  0  0  0  0
    5.1745    7.1466   -0.9929 H   0  0  0  0  0  0  0  0  0  0  0  0
    4.3949    5.6842   -0.3732 H   0  0  0  0  0  0  0  0  0  0  0  0
    0.7192    7.5946   -1.2373 H   0  0  0  0  0  0  0  0  0  0  0  0
   -2.3357    9.8290    0.9930 H   0  0  0  0  0  0  0  0  0  0  0  0
    0.4417   10.1778    4.9908 H   0  0  0  0  0  0  0  0  0  0  0  0
   -0.8056   10.9536    6.0001 H   0  0  0  0  0  0  0  0  0  0  0  0
   -0.9058    9.2085    5.6521 H   0  0  0  0  0  0  0  0  0  0  0  0
    1.3270    5.8427    1.8374 H   0  0  0  0  0  0  0  0  0  0  0  0
   -1.1061    5.1909    0.0968 H   0  0  0  0  0  0  0  0  0  0  0  0
   -1.0611    2.8107   -0.8247 H   0  0  0  0  0  0  0  0  0  0  0  0
   -3.9641    0.5678   -4.8531 H   0  0  0  0  0  0  0  0  0  0  0  0
   -4.9678   -0.1249   -3.5723 H   0  0  0  0  0  0  0  0  0  0  0  0
   -3.8159    2.7132   -3.6064 H   0  0  0  0  0  0  0  0  0  0  0  0
   -4.8542    2.0572   -2.3398 H   0  0  0  0  0  0  0  0  0  0  0  0
   -5.4914    2.2875   -3.9714 H   0  0  0  0  0  0  0  0  0  0  0  0
    7.5971    4.1847    1.3746 H   0  0  0  0  0  0  0  0  0  0  0  0
    8.5364    2.7744    1.8864 H   0  0  0  0  0  0  0  0  0  0  0  0
    9.5092    3.8304   -0.1573 H   0  0  0  0  0  0  0  0  0  0  0  0
    8.9537    2.1908   -0.5050 H   0  0  0  0  0  0  0  0  0  0  0  0
    7.9858    3.5754   -1.0179 H   0  0  0  0  0  0  0  0  0  0  0  0
    4.8383   -1.2524   -0.7320 H   0  0  0  0  0  0  0  0  0  0  0  0
    3.6956   -3.2083   -2.0368 H   0  0  0  0  0  0  0  0  0  0  0  0
  1  2  2  0  0  0  0
  2  3  1  0  0  0  0
  3  4  2  0  0  0  0
  4  5  1  0  0  0  0
  5  6  1  0  0  0  0
  6  7  1  0  0  0  0
  7  8  1  0  0  0  0
  8  9  1  0  0  0  0
  7 10  2  0  0  0  0
 10 11  1  0  0  0  0
 10 12  1  0  0  0  0
 12 13  1  0  0  0  0
  4 14  1  0  0  0  0
 14 15  2  0  0  0  0
 15 16  1  0  0  0  0
 16 17  1  0  0  0  0
 17 18  1  0  0  0  0
 18 19  1  0  0  0  0
 19 20  1  0  0  0  0
 20 21  1  0  0  0  0
 19 22  2  0  0  0  0
 22 23  1  0  0  0  0
 23 24  1  0  0  0  0
 22 25  1  0  0  0  0
 16 26  2  0  0  0  0
 26 27  1  0  0  0  0
 15 28  1  0  0  0  0
 28 29  2  0  0  0  0
 29 30  1  0  0  0  0
 29 31  1  0  0  0  0
 31 32  2  0  0  0  0
 32 33  1  0  0  0  0
 33 34  2  0  0  0  0
 34 35  1  0  0  0  0
 35 36  1  0  0  0  0
 36 37  1  0  0  0  0
 37 38  1  0  0  0  0
 38 39  1  0  0  0  0
 37 40  2  0  0  0  0
 40 41  1  0  0  0  0
 40 42  1  0  0  0  0
 42 43  1  0  0  0  0
 34 44  1  0  0  0  0
 44 45  2  0  0  0  0
 45 46  1  0  0  0  0
 46 47  1  0  0  0  0
 47 48  1  0  0  0  0
 48 49  1  0  0  0  0
 49 50  1  0  0  0  0
 50 51  1  0  0  0  0
 49 52  2  0  0  0  0
 52 53  1  0  0  0  0
 53 54  1  0  0  0  0
 52 55  1  0  0  0  0
 46 56  2  0  0  0  0
 56 57  1  0  0  0  0
 45 58  1  0  0  0  0
 58 59  2  0  0  0  0
 59 60  1  0  0  0  0
 59 61  1  0  0  0  0
 61 62  2  0  0  0  0
 62 63  1  0  0  0  0
 63 64  2  0  0  0  0
 64 65  1  0  0  0  0
 65 66  1  0  0  0  0
 66 67  1  0  0  0  0
 67 68  1  0  0  0  0
 68 69  1  0  0  0  0
 67 70  2  0  0  0  0
 70 71  1  0  0  0  0
 70 72  1  0  0  0  0
 72 73  1  0  0  0  0
 64 74  1  0  0  0  0
 74 75  2  0  0  0  0
 75 76  1  0  0  0  0
 76 77  1  0  0  0  0
 77 78  1  0  0  0  0
 78 79  1  0  0  0  0
 79 80  1  0  0  0  0
 80 81  1  0  0  0  0
 79 82  2  0  0  0  0
 82 83  1  0  0  0  0
 83 84  1  0  0  0  0
 82 85  1  0  0  0  0
 76 86  2  0  0  0  0
 86 87  1  0  0  0  0
 75 88  1  0  0  0  0
 88 89  2  0  0  0  0
 89 90  1  0  0  0  0
 89 91  1  0  0  0  0
 91 92  2  0  0  0  0
 92 93  1  0  0  0  0
 93 94  2  0  0  0  0
 94 95  1  0  0  0  0
 95 96  1  0  0  0  0
 96 97  1  0  0  0  0
 97 98  1  0  0  0  0
 98 99  1  0  0  0  0
 97100  2  0  0  0  0
100101  1  0  0  0  0
100102  1  0  0  0  0
102103  1  0  0  0  0
 94104  1  0  0  0  0
104105  2  0  0  0  0
105106  1  0  0  0  0
106107  1  0  0  0  0
107108  1  0  0  0  0
108109  1  0  0  0  0
109110  1  0  0  0  0
110111  1  0  0  0  0
109112  2  0  0  0  0
112113  1  0  0  0  0
113114  1  0  0  0  0
112115  1  0  0  0  0
106116  2  0  0  0  0
116117  1  0  0  0  0
105118  1  0  0  0  0
118119  2  0  0  0  0
119120  1  0  0  0  0
119121  1  0  0  0  0
121122  1  0  0  0  0
122123  2  0  0  0  0
123124  1  0  0  0  0
124125  1  0  0  0  0
123126  1  0  0  0  0
126127  1  0  0  0  0
127128  1  0  0  0  0
128129  2  0  0  0  0
129130  1  0  0  0  0
130131  2  0  0  0  0
131132  1  0  0  0  0
132133  2  0  0  0  0
133134  1  0  0  0  0
134135  1  0  0  0  0
135136  1  0  0  0  0
136137  1  0  0  0  0
137138  1  0  0  0  0
136139  2  0  0  0  0
139140  1  0  0  0  0
139141  1  0  0  0  0
141142  1  0  0  0  0
133143  1  0  0  0  0
143144  2  0  0  0  0
144145  1  0  0  0  0
145146  1  0  0  0  0
146147  1  0  0  0  0
147148  1  0  0  0  0
148149  1  0  0  0  0
149150  1  0  0  0  0
148151  2  0  0  0  0
151152  1  0  0  0  0
152153  1  0  0  0  0
151154  1  0  0  0  0
145155  2  0  0  0  0
155156  1  0  0  0  0
144157  1  0  0  0  0
157158  2  0  0  0  0
158159  1  0  0  0  0
 27  1  1  0  0  0  0
 57 31  1  0  0  0  0
 87 61  1  0  0  0  0
117 91  1  0  0  0  0
127121  2  0  0  0  0
156130  1  0  0  0  0
 26  3  1  0  0  0  0
 56 33  1  0  0  0  0
 86 63  1  0  0  0  0
116 93  1  0  0  0  0
155132  1  0  0  0  0
 12  5  2  0  0  0  0
 30 14  1  0  0  0  0
 42 35  2  0  0  0  0
 60 44  1  0  0  0  0
 72 65  2  0  0  0  0
 90 74  1  0  0  0  0
102 95  2  0  0  0  0
120104  1  0  0  0  0
141134  2  0  0  0  0
159143  1  0  0  0  0
 23 17  2  0  0  0  0
 53 47  2  0  0  0  0
 83 77  2  0  0  0  0
113107  2  0  0  0  0
152146  2  0  0  0  0
  1160  1  0  0  0  0
  2161  1  0  0  0  0
  8162  1  0  0  0  0
  8163  1  0  0  0  0
  9164  1  0  0  0  0
  9165  1  0  0  0  0
  9166  1  0  0  0  0
 20167  1  0  0  0  0
 20168  1  0  0  0  0
 21169  1  0  0  0  0
 21170  1  0  0  0  0
 21171  1  0  0  0  0
 28172  1  0  0  0  0
 32173  1  0  0  0  0
 38174  1  0  0  0  0
 38175  1  0  0  0  0
 39176  1  0  0  0  0
 39177  1  0  0  0  0
 39178  1  0  0  0  0
 50179  1  0  0  0  0
 50180  1  0  0  0  0
 51181  1  0  0  0  0
 51182  1  0  0  0  0
 51183  1  0  0  0  0
 58184  1  0  0  0  0
 62185  1  0  0  0  0
 68186  1  0  0  0  0
 68187  1  0  0  0  0
 69188  1  0  0  0  0
 69189  1  0  0  0  0
 69190  1  0  0  0  0
 80191  1  0  0  0  0
 80192  1  0  0  0  0
 81193  1  0  0  0  0
 81194  1  0  0  0  0
 81195  1  0  0  0  0
 88196  1  0  0  0  0
 92197  1  0  0  0  0
 98198  1  0  0  0  0
 98199  1  0  0  0  0
 99200  1  0  0  0  0
 99201  1  0  0  0  0
 99202  1  0  0  0  0
110203  1  0  0  0  0
110204  1  0  0  0  0
111205  1  0  0  0  0
111206  1  0  0  0  0
111207  1  0  0  0  0
118208  1  0  0  0  0
122209  1  0  0  0  0
125210  1  0  0  0  0
125211  1  0  0  0  0
125212  1  0  0  0  0
128213  1  0  0  0  0
129214  1  0  0  0  0
131215  1  0  0  0  0
137216  1  0  0  0  0
137217  1  0  0  0  0
138218  1  0  0  0  0
138219  1  0  0  0  0
138220  1  0  0  0  0
149221  1  0  0  0  0
149222  1  0  0  0  0
150223  1  0  0  0  0
150224  1  0  0  0  0
150225  1  0  0  0  0
157226  1  0  0  0  0
158227  1  0  0  0  0
M  END
