230

C         -6.15640      -13.03750       11.29280
C         -6.72050      -11.81690       11.19520
C         -6.30220      -11.10590       10.03190
C         -6.67430       -9.82000        9.62210
C         -7.54950       -8.93430       10.40370
C         -7.23610       -8.58130       11.71220
C         -7.98710       -7.64250       12.39380
C         -9.07740       -7.02720       11.78950
S        -10.08290       -5.78950       12.54760
C         -8.94110       -4.98390       13.72520
C         -7.79050       -4.29110       13.02180
C         -9.41160       -7.43120       10.49720
F        -10.48630       -6.88520        9.89480
C         -8.66700       -8.35850        9.80380
C         -6.13210       -9.36700        8.42970
C         -5.21930      -10.11620        7.64980
C         -4.83060      -11.39820        8.07070
C         -3.83930      -12.16800        7.31050
C         -2.62760      -11.58600        6.94600
C         -1.69180      -12.28250        6.20780
C         -1.93910      -13.58690        5.79460
S         -0.83930      -14.57370        4.83650
C          0.32340      -13.36340        4.11380
C         -0.34090      -12.45850        3.09380
C         -3.14490      -14.16780        6.19280
C         -4.08270      -13.48740        6.93690
F         -3.41120      -15.43700        5.82670
C         -5.40360      -11.86830        9.24510
S         -5.08560      -13.41550        9.98680
C         -4.80990       -9.40390        6.49080
C         -5.34420       -8.15460        6.40460
S         -6.41860       -7.79200        7.74370
C         -5.10570       -7.13710        5.43580
C         -5.62070       -5.87630        5.45950
C         -5.14020       -5.04120        4.42280
C         -5.46120       -3.69200        4.19520
C         -6.34530       -2.97940        5.12500
C         -7.45610       -2.26690        4.67880
C         -8.32610       -1.69140        5.58030
C         -8.11590       -1.78040        6.95600
S         -9.31090       -1.02010        8.01110
C         -9.41620       -2.12900        9.46790
C         -9.75450       -3.55670        9.09180
C         -6.95960       -2.42740        7.38220
F         -6.63980       -2.49090        8.69500
C         -6.09640       -3.03330        6.49370
C         -4.88030       -3.09650        3.08730
C         -3.99630       -3.79060        2.22360
C         -3.68060       -5.14280        2.44780
C         -2.77680       -5.84870        1.53140
C         -3.00490       -5.81390        0.15530
C         -2.12000       -6.40390       -0.72010
C         -0.97590       -7.05330       -0.26040
S          0.11890       -7.74700       -1.45940
C          1.77720       -7.35930       -0.76290
C          2.74480       -7.10410       -1.90130
C         -0.79370       -7.13470        1.11700
C         -1.66630       -6.53840        2.00540
F          0.26450       -7.80280        1.63060
C         -4.25020       -5.73280        3.56310
S         -4.01040       -7.38150        4.08930
C         -3.44300       -2.93700        1.24130
C         -3.87700       -1.64510        1.32560
S         -5.03220       -1.42100        2.62300
C         -3.40650       -0.55760        0.52930
C         -2.39870       -0.62450       -0.39060
C         -2.05170        0.62670       -0.94720
C         -1.04110        0.89140       -1.88790
C         -0.16030       -0.17270       -2.38500
C          0.50160       -1.02810       -1.50460
C          1.33600       -2.01640       -1.98020
C          1.53690       -2.20200       -3.34670
S          2.59180       -3.53280       -3.84060
C          3.55000       -2.84610       -5.24130
C          4.29700       -1.58580       -4.85820
C          0.85510       -1.35350       -4.21390
F          0.96360       -1.49870       -5.55180
C          0.03550       -0.34390       -3.75090
C         -0.90080        2.20760       -2.28940
C         -1.72170        3.26010       -1.80510
C         -2.74720        2.98880       -0.87840
C         -3.63090        4.05930       -0.40610
C         -4.23360        4.92680       -1.31420
C         -5.06930        5.94050       -0.88960
C         -5.33570        6.12430        0.46270
S         -6.35310        7.39470        1.13800
C         -7.34990        7.96530       -0.28270
C         -8.34440        6.91750       -0.74500
C         -4.72090        5.25110        1.36200
C         -3.88940        4.23350        0.95190
F         -4.94190        5.41070        2.68130
C         -2.86720        1.67500       -0.45060
S         -4.01910        1.07100        0.71540
C         -1.30590        4.52000       -2.29170
C         -0.21350        4.45370       -3.11510
S          0.34160        2.80650       -3.35630
C          0.47780        5.53590       -3.70360
C          0.15600        6.89610       -3.65770
C          1.12240        7.73380       -4.30920
N          0.93710        9.06210       -4.37630
C         -0.13400        9.53070       -3.80150
C         -1.08540        8.71350       -3.12930
C         -2.28780        9.31200       -2.47870
N         -0.94060        7.41320       -3.07140
C          2.20130        7.00820       -4.84210
S          1.96450        5.30890       -4.55680
C          3.37780        7.42280       -5.48950
C          3.90750        8.70000       -5.73360
C          5.18460        8.65140       -6.38330
N          5.85900        9.77310       -6.70030
C          5.28440       10.89600       -6.37360
C          4.02420       10.95820       -5.71210
C          3.42040       12.27190       -5.34510
N          3.35540        9.87640       -5.40250
C          5.64080        7.35780       -6.63490
S          4.47780        6.20450       -6.07800
C          6.86370        6.97380       -7.22570
C          7.30550        5.69660       -7.44760
C          8.58700        5.64100       -8.03940
C          9.32330        4.49780       -8.39670
C          8.75540        3.15400       -8.23880
C          7.48900        2.85290       -8.73970
C          6.95630        1.59040       -8.59250
C          7.65600        0.58380       -7.93160
S          6.85760       -0.98590       -7.74740
C          8.18370       -2.19210       -8.11870
C          8.77630       -1.97200       -9.49560
C          8.91040        0.90170       -7.42100
F          9.62770       -0.01450       -6.73520
C          9.46600        2.15480       -7.58200
C         10.59360        4.71340       -8.90930
C         11.13550        6.00550       -9.11590
C         10.38810        7.14560       -8.78370
C         10.90410        8.50020       -9.02030
C         11.38260        8.87600      -10.27410
C         11.82660       10.16150      -10.49890
C         11.82860       11.11530       -9.48320
S         12.45000       12.72380       -9.87850
C         11.31520       13.86000       -8.99790
C          9.86830       13.63850       -9.38990
C         11.38230       10.71480       -8.22750
C         10.90800        9.43990       -7.99560
F         11.40440       11.56910       -7.18100
C          9.13240        6.93630       -8.23390
S          8.01670        8.18720       -7.73200
C         12.45750        5.94050       -9.64850
C         12.87820        4.67710       -9.85970
S         11.71180        3.47520       -9.42420
H         -6.30080      -13.77110       12.06190
H         -7.41980      -11.41800       11.90770
H         -6.37590       -9.02400       12.19190
H         -7.71150       -7.38420       13.40390
H         -8.60040       -5.72300       14.44920
H         -9.57640       -4.26290       14.23930
H         -8.16820       -3.54890       12.32250
H         -7.18420       -5.00580       12.46880
H         -7.15790       -3.79090       13.75240
H         -8.96280       -8.62580        8.80170
H         -2.40370      -10.57930        7.26540
H         -0.76090      -11.79890        5.96030
H          1.07810      -13.99190        3.64110
H          0.79590      -12.80590        4.92160
H         -0.76960      -13.05100        2.28910
H          0.39310      -11.77560        2.67060
H         -1.13640      -11.87170        3.54810
H         -5.00610      -13.98110        7.19520
H         -4.14720       -9.80350        5.74410
H         -6.33290       -5.56080        6.20030
H         -7.65870       -2.19890        3.62120
H         -9.20260       -1.16720        5.23290
H         -8.48570       -2.06060       10.02790
H        -10.21800       -1.67910       10.05380
H         -9.94390       -4.13850        9.99120
H        -10.64670       -3.58900        8.47050
H         -8.93700       -4.02470        8.54680
H         -5.21500       -3.52200        6.87980
H         -3.88630       -5.32000       -0.22490
H         -2.29050       -6.36250       -1.78460
H          2.09410       -8.20210       -0.14950
H          1.66300       -6.47370       -0.14040
H          3.73370       -6.89130       -1.50080
H          2.42090       -6.25400       -2.49800
H          2.81120       -7.97620       -2.54770
H         -1.46110       -6.60660        3.06230
H         -2.72020       -3.26990        0.52020
H         -1.91130       -1.54080       -0.66570
H          0.38600       -0.89200       -0.44000
H          1.85700       -2.66770       -1.29550
H          2.87940       -2.68370       -6.08200
H          4.24000       -3.65290       -5.48820
H          4.93420       -1.76600       -3.99480
H          4.91880       -1.26640       -5.69200
H          3.60590       -0.78020       -4.61660
H         -0.47070        0.28190       -4.46920
H         -4.06060        4.79510       -2.37140
H         -5.50960        6.59300       -1.62620
H         -7.86470        8.84340        0.10700
H         -6.67850        8.28390       -1.07910
H         -9.00740        6.64420        0.07240
H         -8.94420        7.31160       -1.56330
H         -7.83540        6.01900       -1.08770
H         -3.43400        3.59940        1.69580
H         -1.75100        5.46010       -2.02480
H         -0.28270       10.60060       -3.86460
H         -1.98420       10.03500       -1.72320
H         -2.87850        8.52920       -2.01070
H         -2.89450        9.83300       -3.21810
H          5.81870       11.80190       -6.62730
H          3.27660       12.88280       -6.23500
H          4.07860       12.81370       -4.66740
H          2.46340       12.09850       -4.86260
H          6.72990        4.83150       -7.17030
H          6.93430        3.60860       -9.27440
H          5.98040        1.35850       -8.99000
H          7.67240       -3.15280       -8.05770
H          8.93730       -2.14000       -7.33610
H          7.99820       -1.99990      -10.25570
H          9.50290       -2.75300       -9.70980
H          9.28090       -1.00880       -9.55230
H         10.43890        2.34780       -7.15830
H         11.37200        8.16320      -11.08460
H         12.17920       10.45560      -11.47530
H         11.66110       14.84560       -9.31000
H         11.46830       13.75360       -7.92630
H          9.24280       14.39290       -8.91660
H          9.74910       13.71210      -10.46900
H          9.52340       12.65680       -9.07020
H         10.57170        9.18460       -7.00320
H         13.05780        6.81000       -9.84540
H         13.82410        4.35300      -10.24760
