
  xtb     03042213163D
 energy: -219.013291292158 gnorm: 0.000726945371 xtb: 6.4.1 (unknown)
122136  0     0  0            999 V2000
    3.7233   -0.0688   11.5359 C   0  0  0  0  0  0  0  0  0  0  0  0
    4.7668   -0.6265   10.8355 C   0  0  0  0  0  0  0  0  0  0  0  0
    4.4681   -0.7659    9.4355 C   0  0  0  0  0  0  0  0  0  0  0  0
    5.3596   -1.2861    8.5702 N   0  0  0  0  0  0  0  0  0  0  0  0
    6.4975   -1.6536    9.0824 C   0  0  0  0  0  0  0  0  0  0  0  0
    6.8101   -1.5250   10.4731 C   0  0  0  0  0  0  0  0  0  0  0  0
    8.1415   -1.9721   10.9773 C   0  0  0  0  0  0  0  0  0  0  0  0
    5.9650   -1.0222   11.3308 N   0  0  0  0  0  0  0  0  0  0  0  0
    3.1974   -0.3096    9.1001 C   0  0  0  0  0  0  0  0  0  0  0  0
    2.3954    0.2839   10.5139 S   0  0  0  0  0  0  0  0  0  0  0  0
    2.6243   -0.3143    7.8053 C   0  0  0  0  0  0  0  0  0  0  0  0
    1.3928    0.1416    7.4215 C   0  0  0  0  0  0  0  0  0  0  0  0
    1.1463   -0.0066    6.0380 C   0  0  0  0  0  0  0  0  0  0  0  0
   -0.0180    0.3319    5.3243 C   0  0  0  0  0  0  0  0  0  0  0  0
   -1.1495    1.0128    5.9635 C   0  0  0  0  0  0  0  0  0  0  0  0
   -0.9597    2.1670    6.7223 C   0  0  0  0  0  0  0  0  0  0  0  0
   -2.0368    2.8397    7.2585 C   0  0  0  0  0  0  0  0  0  0  0  0
   -3.3399    2.3827    7.0753 C   0  0  0  0  0  0  0  0  0  0  0  0
   -4.6512    3.3184    7.8089 S   0  0  0  0  0  0  0  0  0  0  0  0
   -5.9389    3.3299    6.5054 C   0  0  0  0  0  0  0  0  0  0  0  0
   -5.4184    3.8875    5.1958 C   0  0  0  0  0  0  0  0  0  0  0  0
   -3.5106    1.2047    6.3552 C   0  0  0  0  0  0  0  0  0  0  0  0
   -4.7409    0.6721    6.1828 F   0  0  0  0  0  0  0  0  0  0  0  0
   -2.4445    0.5362    5.7899 C   0  0  0  0  0  0  0  0  0  0  0  0
   -0.0405    0.0200    3.9755 C   0  0  0  0  0  0  0  0  0  0  0  0
    1.0496   -0.5993    3.3082 C   0  0  0  0  0  0  0  0  0  0  0  0
    2.2171   -0.9337    4.0213 C   0  0  0  0  0  0  0  0  0  0  0  0
    3.3488   -1.5897    3.3566 C   0  0  0  0  0  0  0  0  0  0  0  0
    4.6487   -1.1068    3.4986 C   0  0  0  0  0  0  0  0  0  0  0  0
    5.6990   -1.7154    2.8464 C   0  0  0  0  0  0  0  0  0  0  0  0
    5.5042   -2.8375    2.0428 C   0  0  0  0  0  0  0  0  0  0  0  0
    6.9386   -3.5527    1.2935 S   0  0  0  0  0  0  0  0  0  0  0  0
    6.3673   -4.0885   -0.3627 C   0  0  0  0  0  0  0  0  0  0  0  0
    5.7850   -2.9431   -1.1663 C   0  0  0  0  0  0  0  0  0  0  0  0
    4.2080   -3.3329    1.9429 C   0  0  0  0  0  0  0  0  0  0  0  0
    3.1430   -2.7185    2.5689 C   0  0  0  0  0  0  0  0  0  0  0  0
    3.9433   -4.4463    1.2206 F   0  0  0  0  0  0  0  0  0  0  0  0
    2.2403   -0.6178    5.3703 C   0  0  0  0  0  0  0  0  0  0  0  0
    3.5534   -0.9632    6.4718 S   0  0  0  0  0  0  0  0  0  0  0  0
    0.7999   -0.7468    1.9272 C   0  0  0  0  0  0  0  0  0  0  0  0
   -0.4273   -0.2737    1.5391 C   0  0  0  0  0  0  0  0  0  0  0  0
   -1.3452    0.3928    2.8719 S   0  0  0  0  0  0  0  0  0  0  0  0
   -0.9908   -0.2703    0.2488 C   0  0  0  0  0  0  0  0  0  0  0  0
   -2.2234    0.2910   -0.0930 C   0  0  0  0  0  0  0  0  0  0  0  0
   -2.5364    0.1624   -1.4788 C   0  0  0  0  0  0  0  0  0  0  0  0
   -3.6797    0.6527   -1.9832 N   0  0  0  0  0  0  0  0  0  0  0  0
   -4.4716    1.2409   -1.1247 C   0  0  0  0  0  0  0  0  0  0  0  0
   -4.1740    1.3703    0.2607 C   0  0  0  0  0  0  0  0  0  0  0  0
   -5.1255    2.0486    1.1882 C   0  0  0  0  0  0  0  0  0  0  0  0
   -3.0587    0.9002    0.7651 N   0  0  0  0  0  0  0  0  0  0  0  0
   -1.5396   -0.5163   -2.1964 C   0  0  0  0  0  0  0  0  0  0  0  0
   -0.2319   -0.9774   -1.1488 S   0  0  0  0  0  0  0  0  0  0  0  0
   -1.5131   -0.8267   -3.5536 C   0  0  0  0  0  0  0  0  0  0  0  0
   -0.4931   -1.5602   -4.1807 C   0  0  0  0  0  0  0  0  0  0  0  0
   -0.7095   -1.7314   -5.5760 C   0  0  0  0  0  0  0  0  0  0  0  0
    0.1623   -2.4086   -6.3382 N   0  0  0  0  0  0  0  0  0  0  0  0
    1.2046   -2.8928   -5.7115 C   0  0  0  0  0  0  0  0  0  0  0  0
    1.4301   -2.7291   -4.3188 C   0  0  0  0  0  0  0  0  0  0  0  0
    2.6407   -3.3070   -3.6664 C   0  0  0  0  0  0  0  0  0  0  0  0
    0.5839   -2.0640   -3.5634 N   0  0  0  0  0  0  0  0  0  0  0  0
   -1.8949   -1.1186   -6.0155 C   0  0  0  0  0  0  0  0  0  0  0  0
   -2.7354   -0.3531   -4.6975 S   0  0  0  0  0  0  0  0  0  0  0  0
   -2.3768   -1.0762   -7.3203 C   0  0  0  0  0  0  0  0  0  0  0  0
   -3.5428   -0.4188   -7.7379 C   0  0  0  0  0  0  0  0  0  0  0  0
   -3.7838   -0.5178   -9.1414 C   0  0  0  0  0  0  0  0  0  0  0  0
   -4.9132   -0.0108   -9.6664 N   0  0  0  0  0  0  0  0  0  0  0  0
   -5.7020    0.6174   -8.8387 C   0  0  0  0  0  0  0  0  0  0  0  0
   -5.4293    0.7817   -7.4524 C   0  0  0  0  0  0  0  0  0  0  0  0
   -6.3539    1.5445   -6.5654 C   0  0  0  0  0  0  0  0  0  0  0  0
   -4.3624    0.2420   -6.9104 N   0  0  0  0  0  0  0  0  0  0  0  0
   -2.7777   -1.2388   -9.8068 C   0  0  0  0  0  0  0  0  0  0  0  0
   -1.5822   -1.8123   -8.6708 S   0  0  0  0  0  0  0  0  0  0  0  0
   -2.6564   -1.5043  -11.1828 C   0  0  0  0  0  0  0  0  0  0  0  0
   -3.2469   -0.8345  -12.2621 C   0  0  0  0  0  0  0  0  0  0  0  0
   -2.8904   -1.4158  -13.5313 C   0  0  0  0  0  0  0  0  0  0  0  0
   -3.3876   -0.9142  -14.6882 N   0  0  0  0  0  0  0  0  0  0  0  0
   -4.1660    0.1199  -14.5705 C   0  0  0  0  0  0  0  0  0  0  0  0
   -4.4600    0.7477  -13.3227 C   0  0  0  0  0  0  0  0  0  0  0  0
   -5.2876    1.9881  -13.2725 C   0  0  0  0  0  0  0  0  0  0  0  0
   -4.0031    0.2712  -12.1939 N   0  0  0  0  0  0  0  0  0  0  0  0
   -2.0301   -2.4830  -13.4084 C   0  0  0  0  0  0  0  0  0  0  0  0
   -1.6521   -2.7958  -11.7724 S   0  0  0  0  0  0  0  0  0  0  0  0
    3.6696    0.1475   12.5830 H   0  0  0  0  0  0  0  0  0  0  0  0
    7.2227   -2.0724    8.3979 H   0  0  0  0  0  0  0  0  0  0  0  0
    8.2875   -3.0297   10.7626 H   0  0  0  0  0  0  0  0  0  0  0  0
    8.9355   -1.4157   10.4812 H   0  0  0  0  0  0  0  0  0  0  0  0
    8.2000   -1.8081   12.0493 H   0  0  0  0  0  0  0  0  0  0  0  0
    0.6837    0.5513    8.1188 H   0  0  0  0  0  0  0  0  0  0  0  0
    0.0369    2.5589    6.8560 H   0  0  0  0  0  0  0  0  0  0  0  0
   -1.8890    3.7451    7.8265 H   0  0  0  0  0  0  0  0  0  0  0  0
   -6.3347    2.3232    6.3908 H   0  0  0  0  0  0  0  0  0  0  0  0
   -6.7140    3.9704    6.9259 H   0  0  0  0  0  0  0  0  0  0  0  0
   -6.2306    3.9450    4.4736 H   0  0  0  0  0  0  0  0  0  0  0  0
   -5.0078    4.8845    5.3418 H   0  0  0  0  0  0  0  0  0  0  0  0
   -4.6371    3.2501    4.7853 H   0  0  0  0  0  0  0  0  0  0  0  0
   -2.6359   -0.3698    5.2371 H   0  0  0  0  0  0  0  0  0  0  0  0
    4.8304   -0.2314    4.1017 H   0  0  0  0  0  0  0  0  0  0  0  0
    6.7009   -1.3279    2.9453 H   0  0  0  0  0  0  0  0  0  0  0  0
    5.6600   -4.9066   -0.2471 H   0  0  0  0  0  0  0  0  0  0  0  0
    7.2778   -4.4691   -0.8257 H   0  0  0  0  0  0  0  0  0  0  0  0
    5.5404   -3.2885   -2.1689 H   0  0  0  0  0  0  0  0  0  0  0  0
    6.4999   -2.1265   -1.2406 H   0  0  0  0  0  0  0  0  0  0  0  0
    4.8764   -2.5650   -0.7019 H   0  0  0  0  0  0  0  0  0  0  0  0
    2.1605   -3.1523    2.4654 H   0  0  0  0  0  0  0  0  0  0  0  0
    1.4998   -1.1605    1.2238 H   0  0  0  0  0  0  0  0  0  0  0  0
   -5.3959    1.6386   -1.5218 H   0  0  0  0  0  0  0  0  0  0  0  0
   -4.7414    1.9912    2.2026 H   0  0  0  0  0  0  0  0  0  0  0  0
   -6.1035    1.5727    1.1408 H   0  0  0  0  0  0  0  0  0  0  0  0
   -5.2445    3.0939    0.9058 H   0  0  0  0  0  0  0  0  0  0  0  0
    1.9121   -3.4423   -6.3175 H   0  0  0  0  0  0  0  0  0  0  0  0
    2.6187   -3.0863   -2.6033 H   0  0  0  0  0  0  0  0  0  0  0  0
    3.5414   -2.8827   -4.1078 H   0  0  0  0  0  0  0  0  0  0  0  0
    2.6692   -4.3856   -3.8123 H   0  0  0  0  0  0  0  0  0  0  0  0
   -6.6170    1.0121   -9.2610 H   0  0  0  0  0  0  0  0  0  0  0  0
   -6.4310    2.5771   -6.9032 H   0  0  0  0  0  0  0  0  0  0  0  0
   -7.3505    1.1066   -6.5934 H   0  0  0  0  0  0  0  0  0  0  0  0
   -5.9751    1.5230   -5.5475 H   0  0  0  0  0  0  0  0  0  0  0  0
   -4.5760    0.5188  -15.4896 H   0  0  0  0  0  0  0  0  0  0  0  0
   -5.4066    2.2954  -12.2379 H   0  0  0  0  0  0  0  0  0  0  0  0
   -4.8079    2.7867  -13.8369 H   0  0  0  0  0  0  0  0  0  0  0  0
   -6.2663    1.8051  -13.7136 H   0  0  0  0  0  0  0  0  0  0  0  0
   -1.6236   -3.0929  -14.1889 H   0  0  0  0  0  0  0  0  0  0  0  0
  1  2  2  0  0  0  0
  2  3  1  0  0  0  0
  3  4  1  0  0  0  0
  4  5  2  0  0  0  0
  5  6  1  0  0  0  0
  6  7  1  0  0  0  0
  6  8  2  0  0  0  0
  3  9  2  0  0  0  0
  9 10  1  0  0  0  0
  9 11  1  0  0  0  0
 11 12  2  0  0  0  0
 12 13  1  0  0  0  0
 13 14  2  0  0  0  0
 14 15  1  0  0  0  0
 15 16  2  0  0  0  0
 16 17  1  0  0  0  0
 17 18  2  0  0  0  0
 18 19  1  0  0  0  0
 19 20  1  0  0  0  0
 20 21  1  0  0  0  0
 18 22  1  0  0  0  0
 22 23  1  0  0  0  0
 22 24  2  0  0  0  0
 14 25  1  0  0  0  0
 25 26  2  0  0  0  0
 26 27  1  0  0  0  0
 27 28  1  0  0  0  0
 28 29  2  0  0  0  0
 29 30  1  0  0  0  0
 30 31  2  0  0  0  0
 31 32  1  0  0  0  0
 32 33  1  0  0  0  0
 33 34  1  0  0  0  0
 31 35  1  0  0  0  0
 35 36  2  0  0  0  0
 35 37  1  0  0  0  0
 27 38  2  0  0  0  0
 38 39  1  0  0  0  0
 26 40  1  0  0  0  0
 40 41  2  0  0  0  0
 41 42  1  0  0  0  0
 41 43  1  0  0  0  0
 43 44  2  0  0  0  0
 44 45  1  0  0  0  0
 45 46  1  0  0  0  0
 46 47  2  0  0  0  0
 47 48  1  0  0  0  0
 48 49  1  0  0  0  0
 48 50  2  0  0  0  0
 45 51  2  0  0  0  0
 51 52  1  0  0  0  0
 51 53  1  0  0  0  0
 53 54  2  0  0  0  0
 54 55  1  0  0  0  0
 55 56  1  0  0  0  0
 56 57  2  0  0  0  0
 57 58  1  0  0  0  0
 58 59  1  0  0  0  0
 58 60  2  0  0  0  0
 55 61  2  0  0  0  0
 61 62  1  0  0  0  0
 61 63  1  0  0  0  0
 63 64  2  0  0  0  0
 64 65  1  0  0  0  0
 65 66  1  0  0  0  0
 66 67  2  0  0  0  0
 67 68  1  0  0  0  0
 68 69  1  0  0  0  0
 68 70  2  0  0  0  0
 65 71  2  0  0  0  0
 71 72  1  0  0  0  0
 71 73  1  0  0  0  0
 73 74  2  0  0  0  0
 74 75  1  0  0  0  0
 75 76  1  0  0  0  0
 76 77  2  0  0  0  0
 77 78  1  0  0  0  0
 78 79  1  0  0  0  0
 78 80  2  0  0  0  0
 75 81  2  0  0  0  0
 81 82  1  0  0  0  0
 10  1  1  0  0  0  0
 39 11  1  0  0  0  0
 52 43  1  0  0  0  0
 62 53  1  0  0  0  0
 72 63  1  0  0  0  0
 82 73  1  0  0  0  0
  8  2  1  0  0  0  0
 38 13  1  0  0  0  0
 50 44  1  0  0  0  0
 60 54  1  0  0  0  0
 70 64  1  0  0  0  0
 80 74  1  0  0  0  0
 24 15  1  0  0  0  0
 42 25  1  0  0  0  0
 36 28  1  0  0  0  0
  1 83  1  0  0  0  0
  5 84  1  0  0  0  0
  7 85  1  0  0  0  0
  7 86  1  0  0  0  0
  7 87  1  0  0  0  0
 12 88  1  0  0  0  0
 16 89  1  0  0  0  0
 17 90  1  0  0  0  0
 20 91  1  0  0  0  0
 20 92  1  0  0  0  0
 21 93  1  0  0  0  0
 21 94  1  0  0  0  0
 21 95  1  0  0  0  0
 24 96  1  0  0  0  0
 29 97  1  0  0  0  0
 30 98  1  0  0  0  0
 33 99  1  0  0  0  0
 33100  1  0  0  0  0
 34101  1  0  0  0  0
 34102  1  0  0  0  0
 34103  1  0  0  0  0
 36104  1  0  0  0  0
 40105  1  0  0  0  0
 47106  1  0  0  0  0
 49107  1  0  0  0  0
 49108  1  0  0  0  0
 49109  1  0  0  0  0
 57110  1  0  0  0  0
 59111  1  0  0  0  0
 59112  1  0  0  0  0
 59113  1  0  0  0  0
 67114  1  0  0  0  0
 69115  1  0  0  0  0
 69116  1  0  0  0  0
 69117  1  0  0  0  0
 77118  1  0  0  0  0
 79119  1  0  0  0  0
 79120  1  0  0  0  0
 79121  1  0  0  0  0
 81122  1  0  0  0  0
M  END
