
  xtb     03042221043D
 energy: -463.845842225448 gnorm: 0.000371963907 xtb: 6.4.1 (unknown)
266292  0     0  0            999 V2000
   -6.1072   -8.1570    9.8621 C   0  0  0  0  0  0  0  0  0  0  0  0
   -5.6027   -6.9631    9.4917 C   0  0  0  0  0  0  0  0  0  0  0  0
   -5.9502   -6.6044    8.1553 C   0  0  0  0  0  0  0  0  0  0  0  0
   -5.5657   -5.4659    7.4348 C   0  0  0  0  0  0  0  0  0  0  0  0
   -4.7212   -4.4091    8.0087 C   0  0  0  0  0  0  0  0  0  0  0  0
   -5.0515   -3.7697    9.1987 C   0  0  0  0  0  0  0  0  0  0  0  0
   -4.2664   -2.7501    9.7052 C   0  0  0  0  0  0  0  0  0  0  0  0
   -3.1129   -2.3438    9.0445 C   0  0  0  0  0  0  0  0  0  0  0  0
   -2.0342   -1.0444    9.5481 S   0  0  0  0  0  0  0  0  0  0  0  0
   -2.5123   -0.7038   11.2754 C   0  0  0  0  0  0  0  0  0  0  0  0
   -2.1042   -1.8217   12.2159 C   0  0  0  0  0  0  0  0  0  0  0  0
   -2.7916   -2.9996    7.8549 C   0  0  0  0  0  0  0  0  0  0  0  0
   -1.6750   -2.6350    7.1925 F   0  0  0  0  0  0  0  0  0  0  0  0
   -3.5689   -4.0074    7.3346 C   0  0  0  0  0  0  0  0  0  0  0  0
   -6.0033   -5.3873    6.1210 C   0  0  0  0  0  0  0  0  0  0  0  0
   -6.7764   -6.3919    5.4897 C   0  0  0  0  0  0  0  0  0  0  0  0
   -7.1459   -7.5408    6.2073 C   0  0  0  0  0  0  0  0  0  0  0  0
   -7.8965   -8.6310    5.5742 C   0  0  0  0  0  0  0  0  0  0  0  0
   -7.4741   -9.1747    4.3643 C   0  0  0  0  0  0  0  0  0  0  0  0
   -8.1620  -10.2117    3.7646 C   0  0  0  0  0  0  0  0  0  0  0  0
   -9.3011  -10.7459    4.3562 C   0  0  0  0  0  0  0  0  0  0  0  0
  -10.2910  -12.0449    3.6986 S   0  0  0  0  0  0  0  0  0  0  0  0
   -9.3099  -12.7061    2.3078 C   0  0  0  0  0  0  0  0  0  0  0  0
   -8.1134  -13.5126    2.7763 C   0  0  0  0  0  0  0  0  0  0  0  0
   -9.7141  -10.1891    5.5688 C   0  0  0  0  0  0  0  0  0  0  0  0
   -9.0365   -9.1580    6.1780 C   0  0  0  0  0  0  0  0  0  0  0  0
  -10.8213  -10.6741    6.1654 F   0  0  0  0  0  0  0  0  0  0  0  0
   -6.7375   -7.6041    7.5335 C   0  0  0  0  0  0  0  0  0  0  0  0
   -7.0339   -8.9339    8.6248 S   0  0  0  0  0  0  0  0  0  0  0  0
   -7.0939   -6.0481    4.1477 C   0  0  0  0  0  0  0  0  0  0  0  0
   -6.5973   -4.8399    3.7650 C   0  0  0  0  0  0  0  0  0  0  0  0
   -5.7058   -4.0456    5.0519 S   0  0  0  0  0  0  0  0  0  0  0  0
   -6.6263   -4.2044    2.4874 C   0  0  0  0  0  0  0  0  0  0  0  0
   -6.2287   -2.9293    2.2220 C   0  0  0  0  0  0  0  0  0  0  0  0
   -6.1985   -2.6131    0.8421 C   0  0  0  0  0  0  0  0  0  0  0  0
   -5.7693   -1.4150    0.2475 C   0  0  0  0  0  0  0  0  0  0  0  0
   -5.1799   -0.3382    1.0513 C   0  0  0  0  0  0  0  0  0  0  0  0
   -5.5366    0.9983    0.8817 C   0  0  0  0  0  0  0  0  0  0  0  0
   -4.9373    1.9839    1.6358 C   0  0  0  0  0  0  0  0  0  0  0  0
   -3.9664    1.6891    2.5952 C   0  0  0  0  0  0  0  0  0  0  0  0
   -3.3411    3.0552    3.5214 S   0  0  0  0  0  0  0  0  0  0  0  0
   -1.6577    2.5804    4.0654 C   0  0  0  0  0  0  0  0  0  0  0  0
   -0.7215    2.3262    2.9024 C   0  0  0  0  0  0  0  0  0  0  0  0
   -3.6303    0.3486    2.7609 C   0  0  0  0  0  0  0  0  0  0  0  0
   -2.7222   -0.0432    3.6824 F   0  0  0  0  0  0  0  0  0  0  0  0
   -4.2050   -0.6452    1.9961 C   0  0  0  0  0  0  0  0  0  0  0  0
   -5.8166   -1.3604   -1.1372 C   0  0  0  0  0  0  0  0  0  0  0  0
   -6.2096   -2.4600   -1.9401 C   0  0  0  0  0  0  0  0  0  0  0  0
   -6.6397   -3.6578   -1.3425 C   0  0  0  0  0  0  0  0  0  0  0  0
   -6.9933   -4.8125   -2.1775 C   0  0  0  0  0  0  0  0  0  0  0  0
   -7.9054   -4.6856   -3.2241 C   0  0  0  0  0  0  0  0  0  0  0  0
   -8.1611   -5.7481   -4.0655 C   0  0  0  0  0  0  0  0  0  0  0  0
   -7.5214   -6.9720   -3.8928 C   0  0  0  0  0  0  0  0  0  0  0  0
   -7.8589   -8.2753   -5.0464 S   0  0  0  0  0  0  0  0  0  0  0  0
   -6.1669   -8.8094   -5.5085 C   0  0  0  0  0  0  0  0  0  0  0  0
   -5.3592   -7.6728   -6.1024 C   0  0  0  0  0  0  0  0  0  0  0  0
   -6.6626   -7.1039   -2.8067 C   0  0  0  0  0  0  0  0  0  0  0  0
   -6.3858   -6.0456   -1.9655 C   0  0  0  0  0  0  0  0  0  0  0  0
   -6.0541   -8.2820   -2.5526 F   0  0  0  0  0  0  0  0  0  0  0  0
   -6.6242   -3.7034    0.0429 C   0  0  0  0  0  0  0  0  0  0  0  0
   -7.0540   -5.0805    1.0299 S   0  0  0  0  0  0  0  0  0  0  0  0
   -5.9388   -2.2308   -3.3152 C   0  0  0  0  0  0  0  0  0  0  0  0
   -5.3816   -1.0136   -3.5657 C   0  0  0  0  0  0  0  0  0  0  0  0
   -5.2254   -0.0427   -2.1131 S   0  0  0  0  0  0  0  0  0  0  0  0
   -4.7138   -0.5787   -4.7560 C   0  0  0  0  0  0  0  0  0  0  0  0
   -4.0561   -1.3921   -5.6317 C   0  0  0  0  0  0  0  0  0  0  0  0
   -3.1457   -0.7004   -6.4716 C   0  0  0  0  0  0  0  0  0  0  0  0
   -2.1074   -1.2767   -7.2278 C   0  0  0  0  0  0  0  0  0  0  0  0
   -2.0892   -2.7268   -7.4568 C   0  0  0  0  0  0  0  0  0  0  0  0
   -3.2186   -3.3535   -7.9798 C   0  0  0  0  0  0  0  0  0  0  0  0
   -3.2444   -4.7163   -8.1983 C   0  0  0  0  0  0  0  0  0  0  0  0
   -2.1398   -5.5050   -7.8974 C   0  0  0  0  0  0  0  0  0  0  0  0
   -2.0762   -7.2567   -8.1012 S   0  0  0  0  0  0  0  0  0  0  0  0
   -3.2715   -7.5739   -9.4476 C   0  0  0  0  0  0  0  0  0  0  0  0
   -2.8365   -6.9480  -10.7579 C   0  0  0  0  0  0  0  0  0  0  0  0
   -1.0216   -4.8679   -7.3592 C   0  0  0  0  0  0  0  0  0  0  0  0
    0.0571   -5.6037   -7.0275 F   0  0  0  0  0  0  0  0  0  0  0  0
   -0.9797   -3.5074   -7.1442 C   0  0  0  0  0  0  0  0  0  0  0  0
   -1.0968   -0.4202   -7.6351 C   0  0  0  0  0  0  0  0  0  0  0  0
   -1.1711    0.9864   -7.4621 C   0  0  0  0  0  0  0  0  0  0  0  0
   -2.2449    1.5707   -6.7682 C   0  0  0  0  0  0  0  0  0  0  0  0
   -2.2668    3.0096   -6.4746 C   0  0  0  0  0  0  0  0  0  0  0  0
   -3.3817    3.7949   -6.7610 C   0  0  0  0  0  0  0  0  0  0  0  0
   -3.3624    5.1507   -6.5195 C   0  0  0  0  0  0  0  0  0  0  0  0
   -2.2373    5.7940   -5.9946 C   0  0  0  0  0  0  0  0  0  0  0  0
   -2.3665    7.5459   -5.8534 S   0  0  0  0  0  0  0  0  0  0  0  0
   -1.0500    8.1000   -4.7121 C   0  0  0  0  0  0  0  0  0  0  0  0
   -1.2707    7.6198   -3.2925 C   0  0  0  0  0  0  0  0  0  0  0  0
   -1.1410    4.9907   -5.6956 C   0  0  0  0  0  0  0  0  0  0  0  0
   -1.1579    3.6268   -5.9059 C   0  0  0  0  0  0  0  0  0  0  0  0
    0.0076    5.5023   -5.1937 F   0  0  0  0  0  0  0  0  0  0  0  0
   -3.1835    0.6970   -6.2457 C   0  0  0  0  0  0  0  0  0  0  0  0
   -4.3676    1.1158   -5.0335 S   0  0  0  0  0  0  0  0  0  0  0  0
    0.0296    1.6302   -7.8388 C   0  0  0  0  0  0  0  0  0  0  0  0
    1.0482    0.7653   -8.1297 C   0  0  0  0  0  0  0  0  0  0  0  0
    0.4763   -0.8904   -8.2377 S   0  0  0  0  0  0  0  0  0  0  0  0
    2.4274    1.0697   -7.8996 C   0  0  0  0  0  0  0  0  0  0  0  0
    2.8953    2.2833   -7.4739 C   0  0  0  0  0  0  0  0  0  0  0  0
    4.0781    2.1971   -6.7025 C   0  0  0  0  0  0  0  0  0  0  0  0
    4.5890    3.1954   -5.8516 C   0  0  0  0  0  0  0  0  0  0  0  0
    4.0553    4.5620   -5.9252 C   0  0  0  0  0  0  0  0  0  0  0  0
    4.0076    5.2395   -7.1430 C   0  0  0  0  0  0  0  0  0  0  0  0
    3.4780    6.5097   -7.2195 C   0  0  0  0  0  0  0  0  0  0  0  0
    2.9584    7.1462   -6.0943 C   0  0  0  0  0  0  0  0  0  0  0  0
    2.2521    8.7532   -6.3236 S   0  0  0  0  0  0  0  0  0  0  0  0
    2.7835    9.6875   -4.8408 C   0  0  0  0  0  0  0  0  0  0  0  0
    4.2907    9.6982   -4.6848 C   0  0  0  0  0  0  0  0  0  0  0  0
    2.9840    6.4473   -4.8919 C   0  0  0  0  0  0  0  0  0  0  0  0
    2.4586    6.9836   -3.7703 F   0  0  0  0  0  0  0  0  0  0  0  0
    3.5355    5.1861   -4.7962 C   0  0  0  0  0  0  0  0  0  0  0  0
    5.4798    2.7760   -4.8781 C   0  0  0  0  0  0  0  0  0  0  0  0
    5.9282    1.4323   -4.7589 C   0  0  0  0  0  0  0  0  0  0  0  0
    5.4875    0.4591   -5.6722 C   0  0  0  0  0  0  0  0  0  0  0  0
    5.8616   -0.9579   -5.5738 C   0  0  0  0  0  0  0  0  0  0  0  0
    5.6749   -1.6803   -4.3988 C   0  0  0  0  0  0  0  0  0  0  0  0
    5.9578   -3.0311   -4.3455 C   0  0  0  0  0  0  0  0  0  0  0  0
    6.4398   -3.7061   -5.4616 C   0  0  0  0  0  0  0  0  0  0  0  0
    6.8399   -5.4232   -5.4991 S   0  0  0  0  0  0  0  0  0  0  0  0
    5.7560   -6.1378   -4.2123 C   0  0  0  0  0  0  0  0  0  0  0  0
    4.2861   -5.9837   -4.5502 C   0  0  0  0  0  0  0  0  0  0  0  0
    6.6428   -2.9637   -6.6252 C   0  0  0  0  0  0  0  0  0  0  0  0
    6.3515   -1.6196   -6.6971 C   0  0  0  0  0  0  0  0  0  0  0  0
    7.1293   -3.5767   -7.7209 F   0  0  0  0  0  0  0  0  0  0  0  0
    4.5488    0.8652   -6.6063 C   0  0  0  0  0  0  0  0  0  0  0  0
    3.5688   -0.2226   -7.5620 S   0  0  0  0  0  0  0  0  0  0  0  0
    6.6870    1.2273   -3.5832 C   0  0  0  0  0  0  0  0  0  0  0  0
    6.7821    2.3411   -2.7948 C   0  0  0  0  0  0  0  0  0  0  0  0
    6.0759    3.7561   -3.5621 S   0  0  0  0  0  0  0  0  0  0  0  0
    7.1440    2.3718   -1.4235 C   0  0  0  0  0  0  0  0  0  0  0  0
    7.1841    1.2693   -0.5651 C   0  0  0  0  0  0  0  0  0  0  0  0
    7.2311    1.6413    0.8189 C   0  0  0  0  0  0  0  0  0  0  0  0
    7.2381    0.7042    1.7898 N   0  0  0  0  0  0  0  0  0  0  0  0
    7.1926   -0.5347    1.3924 C   0  0  0  0  0  0  0  0  0  0  0  0
    7.1337   -0.9166    0.0201 C   0  0  0  0  0  0  0  0  0  0  0  0
    7.0767   -2.3567   -0.3666 C   0  0  0  0  0  0  0  0  0  0  0  0
    7.1293   -0.0247   -0.9374 N   0  0  0  0  0  0  0  0  0  0  0  0
    7.2637    3.0222    1.0129 C   0  0  0  0  0  0  0  0  0  0  0  0
    7.2496    3.8400   -0.5112 S   0  0  0  0  0  0  0  0  0  0  0  0
    7.2078    3.7115    2.2550 C   0  0  0  0  0  0  0  0  0  0  0  0
    6.6384    3.2487    3.4065 C   0  0  0  0  0  0  0  0  0  0  0  0
    6.6779    4.1838    4.4702 C   0  0  0  0  0  0  0  0  0  0  0  0
    6.1175    4.0557    5.7520 C   0  0  0  0  0  0  0  0  0  0  0  0
    5.2415    2.9299    6.0977 C   0  0  0  0  0  0  0  0  0  0  0  0
    5.4125    2.1873    7.2643 C   0  0  0  0  0  0  0  0  0  0  0  0
    4.5323    1.1776    7.5875 C   0  0  0  0  0  0  0  0  0  0  0  0
    3.4442    0.8619    6.7725 C   0  0  0  0  0  0  0  0  0  0  0  0
    2.4255   -0.4849    7.2941 S   0  0  0  0  0  0  0  0  0  0  0  0
    0.7292   -0.0583    6.7600 C   0  0  0  0  0  0  0  0  0  0  0  0
    0.2482    1.2357    7.3830 C   0  0  0  0  0  0  0  0  0  0  0  0
    3.3028    1.5971    5.5993 C   0  0  0  0  0  0  0  0  0  0  0  0
    2.2946    1.3441    4.7305 F   0  0  0  0  0  0  0  0  0  0  0  0
    4.1719    2.6150    5.2647 C   0  0  0  0  0  0  0  0  0  0  0  0
    6.3676    5.0898    6.6437 C   0  0  0  0  0  0  0  0  0  0  0  0
    7.0892    6.2567    6.2944 C   0  0  0  0  0  0  0  0  0  0  0  0
    7.5825    6.4181    4.9907 C   0  0  0  0  0  0  0  0  0  0  0  0
    8.2722    7.6447    4.5715 C   0  0  0  0  0  0  0  0  0  0  0  0
    9.5109    7.5864    3.9407 C   0  0  0  0  0  0  0  0  0  0  0  0
   10.1613    8.7350    3.5334 C   0  0  0  0  0  0  0  0  0  0  0  0
    9.5874    9.9857    3.7292 C   0  0  0  0  0  0  0  0  0  0  0  0
   10.3095   11.5260    3.2703 S   0  0  0  0  0  0  0  0  0  0  0  0
   11.6321   11.0665    2.0982 C   0  0  0  0  0  0  0  0  0  0  0  0
   11.0829   10.5447    0.7842 C   0  0  0  0  0  0  0  0  0  0  0  0
    8.3469   10.0293    4.3685 C   0  0  0  0  0  0  0  0  0  0  0  0
    7.6926    8.8933    4.7882 C   0  0  0  0  0  0  0  0  0  0  0  0
    7.7619   11.2256    4.5824 F   0  0  0  0  0  0  0  0  0  0  0  0
    7.3738    5.3658    4.1126 C   0  0  0  0  0  0  0  0  0  0  0  0
    7.8563    5.3318    2.4352 S   0  0  0  0  0  0  0  0  0  0  0  0
    7.2043    7.1533    7.3983 C   0  0  0  0  0  0  0  0  0  0  0  0
    6.5793    6.7054    8.5056 C   0  0  0  0  0  0  0  0  0  0  0  0
    5.8131    5.1675    8.2970 S   0  0  0  0  0  0  0  0  0  0  0  0
   -5.9986   -8.6543   10.8063 H   0  0  0  0  0  0  0  0  0  0  0  0
   -4.9895   -6.3488   10.1258 H   0  0  0  0  0  0  0  0  0  0  0  0
   -5.9518   -4.0529    9.7233 H   0  0  0  0  0  0  0  0  0  0  0  0
   -4.5722   -2.2653   10.6183 H   0  0  0  0  0  0  0  0  0  0  0  0
   -3.5816   -0.4984   11.3078 H   0  0  0  0  0  0  0  0  0  0  0  0
   -1.9764    0.2157   11.5114 H   0  0  0  0  0  0  0  0  0  0  0  0
   -1.0286   -1.9757   12.1696 H   0  0  0  0  0  0  0  0  0  0  0  0
   -2.5952   -2.7556   11.9504 H   0  0  0  0  0  0  0  0  0  0  0  0
   -2.3759   -1.5640   13.2378 H   0  0  0  0  0  0  0  0  0  0  0  0
   -3.2624   -4.4847    6.4176 H   0  0  0  0  0  0  0  0  0  0  0  0
   -6.5788   -8.7966    3.8942 H   0  0  0  0  0  0  0  0  0  0  0  0
   -7.8006  -10.5968    2.8252 H   0  0  0  0  0  0  0  0  0  0  0  0
   -9.0299  -11.8807    1.6547 H   0  0  0  0  0  0  0  0  0  0  0  0
  -10.0193  -13.3410    1.7768 H   0  0  0  0  0  0  0  0  0  0  0  0
   -7.4305  -12.8994    3.3604 H   0  0  0  0  0  0  0  0  0  0  0  0
   -7.5763  -13.9102    1.9172 H   0  0  0  0  0  0  0  0  0  0  0  0
   -8.4417  -14.3431    3.3966 H   0  0  0  0  0  0  0  0  0  0  0  0
   -9.4122   -8.7612    7.1077 H   0  0  0  0  0  0  0  0  0  0  0  0
   -7.6832   -6.6669    3.4948 H   0  0  0  0  0  0  0  0  0  0  0  0
   -5.9682   -2.2352    3.0005 H   0  0  0  0  0  0  0  0  0  0  0  0
   -6.2959    1.2644    0.1626 H   0  0  0  0  0  0  0  0  0  0  0  0
   -5.2162    3.0172    1.4990 H   0  0  0  0  0  0  0  0  0  0  0  0
   -1.3372    3.4476    4.6436 H   0  0  0  0  0  0  0  0  0  0  0  0
   -1.7283    1.7210    4.7275 H   0  0  0  0  0  0  0  0  0  0  0  0
   -0.6702    3.1980    2.2535 H   0  0  0  0  0  0  0  0  0  0  0  0
    0.2742    2.1092    3.2822 H   0  0  0  0  0  0  0  0  0  0  0  0
   -1.0540    1.4748    2.3126 H   0  0  0  0  0  0  0  0  0  0  0  0
   -3.8690   -1.6600    2.1426 H   0  0  0  0  0  0  0  0  0  0  0  0
   -8.4127   -3.7450   -3.3764 H   0  0  0  0  0  0  0  0  0  0  0  0
   -8.8556   -5.6440   -4.8847 H   0  0  0  0  0  0  0  0  0  0  0  0
   -6.3392   -9.5964   -6.2422 H   0  0  0  0  0  0  0  0  0  0  0  0
   -5.6820   -9.2393   -4.6351 H   0  0  0  0  0  0  0  0  0  0  0  0
   -5.1969   -6.8852   -5.3680 H   0  0  0  0  0  0  0  0  0  0  0  0
   -4.3882   -8.0414   -6.4273 H   0  0  0  0  0  0  0  0  0  0  0  0
   -5.8814   -7.2439   -6.9558 H   0  0  0  0  0  0  0  0  0  0  0  0
   -5.6827   -6.1912   -1.1606 H   0  0  0  0  0  0  0  0  0  0  0  0
   -6.1117   -2.9647   -4.0813 H   0  0  0  0  0  0  0  0  0  0  0  0
   -4.1210   -2.4645   -5.5944 H   0  0  0  0  0  0  0  0  0  0  0  0
   -4.0856   -2.7601   -8.2293 H   0  0  0  0  0  0  0  0  0  0  0  0
   -4.1387   -5.1657   -8.5991 H   0  0  0  0  0  0  0  0  0  0  0  0
   -3.2860   -8.6614   -9.5200 H   0  0  0  0  0  0  0  0  0  0  0  0
   -4.2577   -7.2347   -9.1338 H   0  0  0  0  0  0  0  0  0  0  0  0
   -3.5447   -7.2049  -11.5432 H   0  0  0  0  0  0  0  0  0  0  0  0
   -1.8531   -7.3150  -11.0419 H   0  0  0  0  0  0  0  0  0  0  0  0
   -2.7881   -5.8640  -10.6743 H   0  0  0  0  0  0  0  0  0  0  0  0
   -0.0900   -3.0738   -6.7167 H   0  0  0  0  0  0  0  0  0  0  0  0
   -4.2608    3.3385   -7.1895 H   0  0  0  0  0  0  0  0  0  0  0  0
   -4.2256    5.7555   -6.7500 H   0  0  0  0  0  0  0  0  0  0  0  0
   -0.0884    7.7895   -5.1111 H   0  0  0  0  0  0  0  0  0  0  0  0
   -1.1198    9.1867   -4.7737 H   0  0  0  0  0  0  0  0  0  0  0  0
   -1.2299    6.5347   -3.2358 H   0  0  0  0  0  0  0  0  0  0  0  0
   -0.4907    8.0212   -2.6490 H   0  0  0  0  0  0  0  0  0  0  0  0
   -2.2389    7.9504   -2.9224 H   0  0  0  0  0  0  0  0  0  0  0  0
   -0.2917    3.0552   -5.6089 H   0  0  0  0  0  0  0  0  0  0  0  0
    0.1640    2.6936   -7.7904 H   0  0  0  0  0  0  0  0  0  0  0  0
    2.3495    3.2015   -7.5912 H   0  0  0  0  0  0  0  0  0  0  0  0
    4.4091    4.7705   -8.0288 H   0  0  0  0  0  0  0  0  0  0  0  0
    3.4527    7.0358   -8.1613 H   0  0  0  0  0  0  0  0  0  0  0  0
    2.3998   10.6902   -5.0298 H   0  0  0  0  0  0  0  0  0  0  0  0
    2.2864    9.2762   -3.9650 H   0  0  0  0  0  0  0  0  0  0  0  0
    4.6691    8.6955   -4.4940 H   0  0  0  0  0  0  0  0  0  0  0  0
    4.5664   10.3335   -3.8455 H   0  0  0  0  0  0  0  0  0  0  0  0
    4.7658   10.0821   -5.5854 H   0  0  0  0  0  0  0  0  0  0  0  0
    3.5126    4.6873   -3.8405 H   0  0  0  0  0  0  0  0  0  0  0  0
    5.2788   -1.1870   -3.5242 H   0  0  0  0  0  0  0  0  0  0  0  0
    5.7955   -3.5637   -3.4218 H   0  0  0  0  0  0  0  0  0  0  0  0
    6.0103   -5.6958   -3.2494 H   0  0  0  0  0  0  0  0  0  0  0  0
    6.0448   -7.1887   -4.1971 H   0  0  0  0  0  0  0  0  0  0  0  0
    4.0691   -6.4420   -5.5119 H   0  0  0  0  0  0  0  0  0  0  0  0
    3.6784   -6.4698   -3.7894 H   0  0  0  0  0  0  0  0  0  0  0  0
    4.0042   -4.9339   -4.6007 H   0  0  0  0  0  0  0  0  0  0  0  0
    6.5144   -1.0946   -7.6254 H   0  0  0  0  0  0  0  0  0  0  0  0
    7.0970    0.2823   -3.2824 H   0  0  0  0  0  0  0  0  0  0  0  0
    7.2017   -1.2883    2.1686 H   0  0  0  0  0  0  0  0  0  0  0  0
    7.1304   -2.4453   -1.4482 H   0  0  0  0  0  0  0  0  0  0  0  0
    6.1472   -2.8007   -0.0114 H   0  0  0  0  0  0  0  0  0  0  0  0
    7.9036   -2.9017    0.0855 H   0  0  0  0  0  0  0  0  0  0  0  0
    6.2091    2.2670    3.4802 H   0  0  0  0  0  0  0  0  0  0  0  0
    6.2459    2.3981    7.9161 H   0  0  0  0  0  0  0  0  0  0  0  0
    4.6686    0.6060    8.4923 H   0  0  0  0  0  0  0  0  0  0  0  0
    0.6906   -0.0332    5.6737 H   0  0  0  0  0  0  0  0  0  0  0  0
    0.1396   -0.9025    7.1150 H   0  0  0  0  0  0  0  0  0  0  0  0
    0.8178    2.0868    7.0134 H   0  0  0  0  0  0  0  0  0  0  0  0
    0.3465    1.1936    8.4655 H   0  0  0  0  0  0  0  0  0  0  0  0
   -0.8009    1.3865    7.1389 H   0  0  0  0  0  0  0  0  0  0  0  0
    3.9960    3.1683    4.3549 H   0  0  0  0  0  0  0  0  0  0  0  0
    9.9856    6.6299    3.7846 H   0  0  0  0  0  0  0  0  0  0  0  0
   11.1286    8.6452    3.0669 H   0  0  0  0  0  0  0  0  0  0  0  0
   12.1725   12.0014    1.9488 H   0  0  0  0  0  0  0  0  0  0  0  0
   12.2996   10.3558    2.5838 H   0  0  0  0  0  0  0  0  0  0  0  0
   10.4458   11.2942    0.3206 H   0  0  0  0  0  0  0  0  0  0  0  0
   10.4950    9.6418    0.9355 H   0  0  0  0  0  0  0  0  0  0  0  0
   11.9026   10.3163    0.1055 H   0  0  0  0  0  0  0  0  0  0  0  0
    6.7248    8.9852    5.2561 H   0  0  0  0  0  0  0  0  0  0  0  0
    7.7457    8.0806    7.3523 H   0  0  0  0  0  0  0  0  0  0  0  0
    6.5164    7.1811    9.4648 H   0  0  0  0  0  0  0  0  0  0  0  0
  1  2  2  0  0  0  0
  2  3  1  0  0  0  0
  3  4  2  0  0  0  0
  4  5  1  0  0  0  0
  5  6  2  0  0  0  0
  6  7  1  0  0  0  0
  7  8  2  0  0  0  0
  8  9  1  0  0  0  0
  9 10  1  0  0  0  0
 10 11  1  0  0  0  0
  8 12  1  0  0  0  0
 12 13  1  0  0  0  0
 12 14  2  0  0  0  0
  4 15  1  0  0  0  0
 15 16  2  0  0  0  0
 16 17  1  0  0  0  0
 17 18  1  0  0  0  0
 18 19  2  0  0  0  0
 19 20  1  0  0  0  0
 20 21  2  0  0  0  0
 21 22  1  0  0  0  0
 22 23  1  0  0  0  0
 23 24  1  0  0  0  0
 21 25  1  0  0  0  0
 25 26  2  0  0  0  0
 25 27  1  0  0  0  0
 17 28  2  0  0  0  0
 28 29  1  0  0  0  0
 16 30  1  0  0  0  0
 30 31  2  0  0  0  0
 31 32  1  0  0  0  0
 31 33  1  0  0  0  0
 33 34  2  0  0  0  0
 34 35  1  0  0  0  0
 35 36  2  0  0  0  0
 36 37  1  0  0  0  0
 37 38  2  0  0  0  0
 38 39  1  0  0  0  0
 39 40  2  0  0  0  0
 40 41  1  0  0  0  0
 41 42  1  0  0  0  0
 42 43  1  0  0  0  0
 40 44  1  0  0  0  0
 44 45  1  0  0  0  0
 44 46  2  0  0  0  0
 36 47  1  0  0  0  0
 47 48  2  0  0  0  0
 48 49  1  0  0  0  0
 49 50  1  0  0  0  0
 50 51  2  0  0  0  0
 51 52  1  0  0  0  0
 52 53  2  0  0  0  0
 53 54  1  0  0  0  0
 54 55  1  0  0  0  0
 55 56  1  0  0  0  0
 53 57  1  0  0  0  0
 57 58  2  0  0  0  0
 57 59  1  0  0  0  0
 49 60  2  0  0  0  0
 60 61  1  0  0  0  0
 48 62  1  0  0  0  0
 62 63  2  0  0  0  0
 63 64  1  0  0  0  0
 63 65  1  0  0  0  0
 65 66  2  0  0  0  0
 66 67  1  0  0  0  0
 67 68  2  0  0  0  0
 68 69  1  0  0  0  0
 69 70  2  0  0  0  0
 70 71  1  0  0  0  0
 71 72  2  0  0  0  0
 72 73  1  0  0  0  0
 73 74  1  0  0  0  0
 74 75  1  0  0  0  0
 72 76  1  0  0  0  0
 76 77  1  0  0  0  0
 76 78  2  0  0  0  0
 68 79  1  0  0  0  0
 79 80  2  0  0  0  0
 80 81  1  0  0  0  0
 81 82  1  0  0  0  0
 82 83  2  0  0  0  0
 83 84  1  0  0  0  0
 84 85  2  0  0  0  0
 85 86  1  0  0  0  0
 86 87  1  0  0  0  0
 87 88  1  0  0  0  0
 85 89  1  0  0  0  0
 89 90  2  0  0  0  0
 89 91  1  0  0  0  0
 81 92  2  0  0  0  0
 92 93  1  0  0  0  0
 80 94  1  0  0  0  0
 94 95  2  0  0  0  0
 95 96  1  0  0  0  0
 95 97  1  0  0  0  0
 97 98  2  0  0  0  0
 98 99  1  0  0  0  0
 99100  2  0  0  0  0
100101  1  0  0  0  0
101102  2  0  0  0  0
102103  1  0  0  0  0
103104  2  0  0  0  0
104105  1  0  0  0  0
105106  1  0  0  0  0
106107  1  0  0  0  0
104108  1  0  0  0  0
108109  1  0  0  0  0
108110  2  0  0  0  0
100111  1  0  0  0  0
111112  2  0  0  0  0
112113  1  0  0  0  0
113114  1  0  0  0  0
114115  2  0  0  0  0
115116  1  0  0  0  0
116117  2  0  0  0  0
117118  1  0  0  0  0
118119  1  0  0  0  0
119120  1  0  0  0  0
117121  1  0  0  0  0
121122  2  0  0  0  0
121123  1  0  0  0  0
113124  2  0  0  0  0
124125  1  0  0  0  0
112126  1  0  0  0  0
126127  2  0  0  0  0
127128  1  0  0  0  0
127129  1  0  0  0  0
129130  2  0  0  0  0
130131  1  0  0  0  0
131132  1  0  0  0  0
132133  2  0  0  0  0
133134  1  0  0  0  0
134135  1  0  0  0  0
134136  2  0  0  0  0
131137  2  0  0  0  0
137138  1  0  0  0  0
137139  1  0  0  0  0
139140  2  0  0  0  0
140141  1  0  0  0  0
141142  2  0  0  0  0
142143  1  0  0  0  0
143144  2  0  0  0  0
144145  1  0  0  0  0
145146  2  0  0  0  0
146147  1  0  0  0  0
147148  1  0  0  0  0
148149  1  0  0  0  0
146150  1  0  0  0  0
150151  1  0  0  0  0
150152  2  0  0  0  0
142153  1  0  0  0  0
153154  2  0  0  0  0
154155  1  0  0  0  0
155156  1  0  0  0  0
156157  2  0  0  0  0
157158  1  0  0  0  0
158159  2  0  0  0  0
159160  1  0  0  0  0
160161  1  0  0  0  0
161162  1  0  0  0  0
159163  1  0  0  0  0
163164  2  0  0  0  0
163165  1  0  0  0  0
155166  2  0  0  0  0
166167  1  0  0  0  0
154168  1  0  0  0  0
168169  2  0  0  0  0
169170  1  0  0  0  0
 29  1  1  0  0  0  0
 61 33  1  0  0  0  0
 93 65  1  0  0  0  0
125 97  1  0  0  0  0
138129  1  0  0  0  0
167139  1  0  0  0  0
 28  3  1  0  0  0  0
 60 35  1  0  0  0  0
 92 67  1  0  0  0  0
124 99  1  0  0  0  0
136130  1  0  0  0  0
166141  1  0  0  0  0
 14  5  1  0  0  0  0
 32 15  1  0  0  0  0
 46 37  1  0  0  0  0
 64 47  1  0  0  0  0
 78 69  1  0  0  0  0
 96 79  1  0  0  0  0
110101  1  0  0  0  0
128111  1  0  0  0  0
152143  1  0  0  0  0
170153  1  0  0  0  0
 26 18  1  0  0  0  0
 58 50  1  0  0  0  0
 90 82  1  0  0  0  0
122114  1  0  0  0  0
164156  1  0  0  0  0
  1171  1  0  0  0  0
  2172  1  0  0  0  0
  6173  1  0  0  0  0
  7174  1  0  0  0  0
 10175  1  0  0  0  0
 10176  1  0  0  0  0
 11177  1  0  0  0  0
 11178  1  0  0  0  0
 11179  1  0  0  0  0
 14180  1  0  0  0  0
 19181  1  0  0  0  0
 20182  1  0  0  0  0
 23183  1  0  0  0  0
 23184  1  0  0  0  0
 24185  1  0  0  0  0
 24186  1  0  0  0  0
 24187  1  0  0  0  0
 26188  1  0  0  0  0
 30189  1  0  0  0  0
 34190  1  0  0  0  0
 38191  1  0  0  0  0
 39192  1  0  0  0  0
 42193  1  0  0  0  0
 42194  1  0  0  0  0
 43195  1  0  0  0  0
 43196  1  0  0  0  0
 43197  1  0  0  0  0
 46198  1  0  0  0  0
 51199  1  0  0  0  0
 52200  1  0  0  0  0
 55201  1  0  0  0  0
 55202  1  0  0  0  0
 56203  1  0  0  0  0
 56204  1  0  0  0  0
 56205  1  0  0  0  0
 58206  1  0  0  0  0
 62207  1  0  0  0  0
 66208  1  0  0  0  0
 70209  1  0  0  0  0
 71210  1  0  0  0  0
 74211  1  0  0  0  0
 74212  1  0  0  0  0
 75213  1  0  0  0  0
 75214  1  0  0  0  0
 75215  1  0  0  0  0
 78216  1  0  0  0  0
 83217  1  0  0  0  0
 84218  1  0  0  0  0
 87219  1  0  0  0  0
 87220  1  0  0  0  0
 88221  1  0  0  0  0
 88222  1  0  0  0  0
 88223  1  0  0  0  0
 90224  1  0  0  0  0
 94225  1  0  0  0  0
 98226  1  0  0  0  0
102227  1  0  0  0  0
103228  1  0  0  0  0
106229  1  0  0  0  0
106230  1  0  0  0  0
107231  1  0  0  0  0
107232  1  0  0  0  0
107233  1  0  0  0  0
110234  1  0  0  0  0
115235  1  0  0  0  0
116236  1  0  0  0  0
119237  1  0  0  0  0
119238  1  0  0  0  0
120239  1  0  0  0  0
120240  1  0  0  0  0
120241  1  0  0  0  0
122242  1  0  0  0  0
126243  1  0  0  0  0
133244  1  0  0  0  0
135245  1  0  0  0  0
135246  1  0  0  0  0
135247  1  0  0  0  0
140248  1  0  0  0  0
144249  1  0  0  0  0
145250  1  0  0  0  0
148251  1  0  0  0  0
148252  1  0  0  0  0
149253  1  0  0  0  0
149254  1  0  0  0  0
149255  1  0  0  0  0
152256  1  0  0  0  0
157257  1  0  0  0  0
158258  1  0  0  0  0
161259  1  0  0  0  0
161260  1  0  0  0  0
162261  1  0  0  0  0
162262  1  0  0  0  0
162263  1  0  0  0  0
164264  1  0  0  0  0
168265  1  0  0  0  0
169266  1  0  0  0  0
M  END
