
  xtb     03042209583D
 energy: -175.372621415552 gnorm: 0.000399406527 xtb: 6.4.1 (unknown)
 86101  0     0  0            999 V2000
   10.3985    0.6610    0.0302 C   0  0  0  0  0  0  0  0  0  0  0  0
   10.2501   -0.3859    0.9146 C   0  0  0  0  0  0  0  0  0  0  0  0
    8.9885   -0.7818    1.4359 C   0  0  0  0  0  0  0  0  0  0  0  0
    9.0386   -1.8807    2.2368 N   0  0  0  0  0  0  0  0  0  0  0  0
   10.2250   -2.3125    2.3837 C   0  0  0  0  0  0  0  0  0  0  0  0
   11.4874   -1.4353    1.5418 S   0  0  0  0  0  0  0  0  0  0  0  0
    7.8158   -0.0883    1.0865 C   0  0  0  0  0  0  0  0  0  0  0  0
    7.9725    0.9401    0.1575 C   0  0  0  0  0  0  0  0  0  0  0  0
    9.2390    1.3208   -0.3600 C   0  0  0  0  0  0  0  0  0  0  0  0
    9.1962    2.3682   -1.2342 N   0  0  0  0  0  0  0  0  0  0  0  0
    8.0097    2.7943   -1.4032 C   0  0  0  0  0  0  0  0  0  0  0  0
    6.7464    1.9754   -0.5116 S   0  0  0  0  0  0  0  0  0  0  0  0
    6.5575   -0.4309    1.6870 C   0  0  0  0  0  0  0  0  0  0  0  0
    6.3357   -0.8768    2.9875 C   0  0  0  0  0  0  0  0  0  0  0  0
    4.9564   -1.1673    3.2664 C   0  0  0  0  0  0  0  0  0  0  0  0
    4.5877   -1.6138    4.4799 N   0  0  0  0  0  0  0  0  0  0  0  0
    5.5336   -1.7522    5.3618 C   0  0  0  0  0  0  0  0  0  0  0  0
    6.8939   -1.4042    5.1148 C   0  0  0  0  0  0  0  0  0  0  0  0
    7.9161   -1.5061    6.1972 C   0  0  0  0  0  0  0  0  0  0  0  0
    7.2775   -0.9632    3.9474 N   0  0  0  0  0  0  0  0  0  0  0  0
    4.1171   -0.9188    2.1707 C   0  0  0  0  0  0  0  0  0  0  0  0
    5.0584   -0.3311    0.8341 S   0  0  0  0  0  0  0  0  0  0  0  0
    2.7227   -1.0616    2.0173 C   0  0  0  0  0  0  0  0  0  0  0  0
    1.7473   -1.5516    2.8973 C   0  0  0  0  0  0  0  0  0  0  0  0
    0.4203   -1.4779    2.3533 C   0  0  0  0  0  0  0  0  0  0  0  0
   -0.6340   -1.9885    3.0234 N   0  0  0  0  0  0  0  0  0  0  0  0
   -0.3859   -2.4653    4.2070 C   0  0  0  0  0  0  0  0  0  0  0  0
    0.9184   -2.4862    4.7826 C   0  0  0  0  0  0  0  0  0  0  0  0
    1.1450   -3.0336    6.1514 C   0  0  0  0  0  0  0  0  0  0  0  0
    1.9612   -2.0618    4.1193 N   0  0  0  0  0  0  0  0  0  0  0  0
    0.3746   -0.9283    1.0749 C   0  0  0  0  0  0  0  0  0  0  0  0
    1.9701   -0.5468    0.5370 S   0  0  0  0  0  0  0  0  0  0  0  0
   -0.7951   -0.6725    0.2835 C   0  0  0  0  0  0  0  0  0  0  0  0
   -0.8508   -0.8489   -1.0977 C   0  0  0  0  0  0  0  0  0  0  0  0
   -2.0416   -0.6775   -1.8465 C   0  0  0  0  0  0  0  0  0  0  0  0
   -1.9032   -0.9178   -3.1824 N   0  0  0  0  0  0  0  0  0  0  0  0
   -0.7158   -1.2639   -3.4813 C   0  0  0  0  0  0  0  0  0  0  0  0
    0.4298   -1.3450   -2.1645 S   0  0  0  0  0  0  0  0  0  0  0  0
   -3.2343   -0.2795   -1.2321 C   0  0  0  0  0  0  0  0  0  0  0  0
   -3.1699   -0.0488    0.1350 C   0  0  0  0  0  0  0  0  0  0  0  0
   -1.9856   -0.2381    0.8931 C   0  0  0  0  0  0  0  0  0  0  0  0
   -2.1154    0.0663    2.2127 N   0  0  0  0  0  0  0  0  0  0  0  0
   -3.3024    0.4206    2.5036 C   0  0  0  0  0  0  0  0  0  0  0  0
   -4.4539    0.4568    1.1880 S   0  0  0  0  0  0  0  0  0  0  0  0
   -4.4653   -0.1170   -2.0025 C   0  0  0  0  0  0  0  0  0  0  0  0
   -4.9593   -1.1015   -2.8463 C   0  0  0  0  0  0  0  0  0  0  0  0
   -6.1729   -0.9542   -3.5684 C   0  0  0  0  0  0  0  0  0  0  0  0
   -6.5319   -2.0531   -4.2905 N   0  0  0  0  0  0  0  0  0  0  0  0
   -5.6805   -2.9919   -4.1716 C   0  0  0  0  0  0  0  0  0  0  0  0
   -4.3006   -2.6789   -3.1460 S   0  0  0  0  0  0  0  0  0  0  0  0
   -6.9251    0.2208   -3.4814 C   0  0  0  0  0  0  0  0  0  0  0  0
   -6.4209    1.2133   -2.6564 C   0  0  0  0  0  0  0  0  0  0  0  0
   -5.2160    1.0600   -1.9217 C   0  0  0  0  0  0  0  0  0  0  0  0
   -4.8617    2.1590   -1.1954 N   0  0  0  0  0  0  0  0  0  0  0  0
   -5.6967    3.1091   -1.3321 C   0  0  0  0  0  0  0  0  0  0  0  0
   -7.0604    2.8079   -2.3819 S   0  0  0  0  0  0  0  0  0  0  0  0
   -8.1661    0.3591   -4.2465 C   0  0  0  0  0  0  0  0  0  0  0  0
   -9.3910    0.6450   -3.6641 C   0  0  0  0  0  0  0  0  0  0  0  0
  -10.5928    0.7414   -4.4190 C   0  0  0  0  0  0  0  0  0  0  0  0
  -11.7017    1.0094   -3.6700 N   0  0  0  0  0  0  0  0  0  0  0  0
  -11.4259    1.1047   -2.4322 C   0  0  0  0  0  0  0  0  0  0  0  0
   -9.7505    0.8824   -1.9787 S   0  0  0  0  0  0  0  0  0  0  0  0
  -10.5854    0.5499   -5.7944 C   0  0  0  0  0  0  0  0  0  0  0  0
   -9.3694    0.2675   -6.3791 C   0  0  0  0  0  0  0  0  0  0  0  0
   -8.1639    0.1722   -5.6314 C   0  0  0  0  0  0  0  0  0  0  0  0
   -7.0564   -0.0854   -6.3829 N   0  0  0  0  0  0  0  0  0  0  0  0
   -7.3401   -0.2116   -7.6156 C   0  0  0  0  0  0  0  0  0  0  0  0
   -9.0232   -0.0191   -8.0593 S   0  0  0  0  0  0  0  0  0  0  0  0
   11.3562    0.9638   -0.3569 H   0  0  0  0  0  0  0  0  0  0  0  0
   10.4784   -3.1702    2.9750 H   0  0  0  0  0  0  0  0  0  0  0  0
    7.7574    3.6098   -2.0526 H   0  0  0  0  0  0  0  0  0  0  0  0
    5.2331   -2.1225    6.3335 H   0  0  0  0  0  0  0  0  0  0  0  0
    7.9872   -2.5345    6.5478 H   0  0  0  0  0  0  0  0  0  0  0  0
    8.8810   -1.1870    5.8143 H   0  0  0  0  0  0  0  0  0  0  0  0
    7.6352   -0.8801    7.0429 H   0  0  0  0  0  0  0  0  0  0  0  0
   -1.2277   -2.8869    4.7410 H   0  0  0  0  0  0  0  0  0  0  0  0
    0.6151   -2.4308    6.8876 H   0  0  0  0  0  0  0  0  0  0  0  0
    2.2090   -3.0161    6.3663 H   0  0  0  0  0  0  0  0  0  0  0  0
    0.7717   -4.0541    6.2201 H   0  0  0  0  0  0  0  0  0  0  0  0
   -0.3998   -1.4976   -4.4791 H   0  0  0  0  0  0  0  0  0  0  0  0
   -3.6119    0.7018    3.4910 H   0  0  0  0  0  0  0  0  0  0  0  0
   -5.7757   -3.9410   -4.6623 H   0  0  0  0  0  0  0  0  0  0  0  0
   -5.5992    4.0592   -0.8444 H   0  0  0  0  0  0  0  0  0  0  0  0
  -12.1565    1.3108   -1.6745 H   0  0  0  0  0  0  0  0  0  0  0  0
  -11.4993    0.6173   -6.3596 H   0  0  0  0  0  0  0  0  0  0  0  0
   -6.6121   -0.4197   -8.3751 H   0  0  0  0  0  0  0  0  0  0  0  0
  1  2  2  0  0  0  0
  2  3  1  0  0  0  0
  3  4  1  0  0  0  0
  4  5  2  0  0  0  0
  5  6  1  0  0  0  0
  3  7  2  0  0  0  0
  7  8  1  0  0  0  0
  8  9  2  0  0  0  0
  9 10  1  0  0  0  0
 10 11  2  0  0  0  0
 11 12  1  0  0  0  0
  7 13  1  0  0  0  0
 13 14  2  0  0  0  0
 14 15  1  0  0  0  0
 15 16  1  0  0  0  0
 16 17  2  0  0  0  0
 17 18  1  0  0  0  0
 18 19  1  0  0  0  0
 18 20  2  0  0  0  0
 15 21  2  0  0  0  0
 21 22  1  0  0  0  0
 21 23  1  0  0  0  0
 23 24  2  0  0  0  0
 24 25  1  0  0  0  0
 25 26  1  0  0  0  0
 26 27  2  0  0  0  0
 27 28  1  0  0  0  0
 28 29  1  0  0  0  0
 28 30  2  0  0  0  0
 25 31  2  0  0  0  0
 31 32  1  0  0  0  0
 31 33  1  0  0  0  0
 33 34  1  0  0  0  0
 34 35  2  0  0  0  0
 35 36  1  0  0  0  0
 36 37  2  0  0  0  0
 37 38  1  0  0  0  0
 35 39  1  0  0  0  0
 39 40  2  0  0  0  0
 40 41  1  0  0  0  0
 41 42  1  0  0  0  0
 42 43  2  0  0  0  0
 43 44  1  0  0  0  0
 39 45  1  0  0  0  0
 45 46  1  0  0  0  0
 46 47  2  0  0  0  0
 47 48  1  0  0  0  0
 48 49  2  0  0  0  0
 49 50  1  0  0  0  0
 47 51  1  0  0  0  0
 51 52  2  0  0  0  0
 52 53  1  0  0  0  0
 53 54  1  0  0  0  0
 54 55  2  0  0  0  0
 55 56  1  0  0  0  0
 51 57  1  0  0  0  0
 57 58  1  0  0  0  0
 58 59  2  0  0  0  0
 59 60  1  0  0  0  0
 60 61  2  0  0  0  0
 61 62  1  0  0  0  0
 59 63  1  0  0  0  0
 63 64  2  0  0  0  0
 64 65  1  0  0  0  0
 65 66  1  0  0  0  0
 66 67  2  0  0  0  0
 67 68  1  0  0  0  0
  9  1  1  0  0  0  0
 22 13  1  0  0  0  0
 32 23  1  0  0  0  0
 41 33  2  0  0  0  0
 53 45  2  0  0  0  0
 65 57  2  0  0  0  0
  6  2  1  0  0  0  0
 12  8  1  0  0  0  0
 20 14  1  0  0  0  0
 30 24  1  0  0  0  0
 38 34  1  0  0  0  0
 44 40  1  0  0  0  0
 50 46  1  0  0  0  0
 56 52  1  0  0  0  0
 62 58  1  0  0  0  0
 68 64  1  0  0  0  0
  1 69  1  0  0  0  0
  5 70  1  0  0  0  0
 11 71  1  0  0  0  0
 17 72  1  0  0  0  0
 19 73  1  0  0  0  0
 19 74  1  0  0  0  0
 19 75  1  0  0  0  0
 27 76  1  0  0  0  0
 29 77  1  0  0  0  0
 29 78  1  0  0  0  0
 29 79  1  0  0  0  0
 37 80  1  0  0  0  0
 43 81  1  0  0  0  0
 49 82  1  0  0  0  0
 55 83  1  0  0  0  0
 61 84  1  0  0  0  0
 63 85  1  0  0  0  0
 67 86  1  0  0  0  0
M  END
