198

C          5.58570      -16.53960       10.92770
C          6.46130      -15.97550       10.02690
C          5.82280      -14.98980        9.19930
N          6.49240      -14.31290        8.25070
C          7.75690      -14.61000        8.13300
C          8.40980      -15.58620        8.94600
C          9.86300      -15.86540        8.74840
N          7.77770      -16.25570        9.87300
C          4.46860      -14.82970        9.49570
S          4.00580      -15.88840       10.78070
C          3.58160      -13.94560        8.86350
C          2.22510      -13.75980        9.14040
C          1.62140      -12.77400        8.30100
N          0.31810      -12.46050        8.42290
C         -0.33740      -13.10600        9.34640
C          0.25630      -14.08920       10.19090
C         -0.55720      -14.78450       11.23010
N          1.52280      -14.41040       10.08440
C          2.51610      -12.20790        7.39100
S          4.09730      -12.90440        7.57740
C          2.21140      -11.20120        6.44940
C          3.06090      -10.58730        5.56670
C          2.43330       -9.60150        4.77530
C          3.01570       -8.78180        3.78410
C          4.39080       -8.96900        3.37130
C          5.05440      -10.14680        3.17340
C          6.38780       -9.95460        2.75350
Cl         7.44470      -11.27470        2.42330
C          6.76130       -8.64780        2.63560
C          8.06150       -8.07980        2.18490
C          7.93770       -7.45570        0.79350
S          5.43310       -7.61420        3.03890
C          2.19870       -7.80280        3.23140
C          0.82920       -7.66280        3.56400
C          0.22760       -8.53260        4.49570
C         -1.18970       -8.44070        4.78090
C         -2.21300       -8.25310        3.89330
C         -3.48020       -8.20220        4.50600
C         -3.43020       -8.33910        5.85930
C         -4.55830       -8.36470        6.83200
C         -4.74450       -9.76340        7.42260
S         -1.79940       -8.55450        6.40590
C          1.06050       -9.46050        5.10720
S          0.57660      -10.59060        6.34630
C          0.23280       -6.56800        2.89650
C          1.08520       -5.90410        2.06240
S          2.68480       -6.61150        2.05500
C          0.78580       -4.73670        1.29900
C         -0.45120       -4.19680        1.09510
C         -0.43230       -2.98920        0.35900
C         -1.52210       -2.16350        0.01620
C         -2.87710       -2.45240        0.44110
C         -4.03770       -2.26490       -0.25330
C         -5.18310       -2.62810        0.48830
Cl        -6.77190       -2.50950       -0.16610
C         -4.92460       -3.07600        1.75040
C         -5.87070       -3.56280        2.79230
C         -5.59300       -5.01880        3.16900
S         -3.21860       -3.05940        2.03970
C         -1.22550       -1.02820       -0.73150
C          0.09180       -0.67060       -1.10970
C          1.18320       -1.48290       -0.74520
C          2.54440       -1.10870       -1.07120
C          3.13110        0.12280       -0.98260
C          4.48490        0.12430       -1.37230
C          4.93530       -1.09750       -1.76820
C          6.30260       -1.48590       -2.21340
C          6.99670       -2.35970       -1.16670
S          3.68390       -2.29010       -1.65150
C          0.88250       -2.63940       -0.03600
S          2.04950       -3.79450        0.54760
C          0.12020        0.53920       -1.84520
C         -1.10570        1.11530       -2.00250
S         -2.37830        0.16260       -1.27040
C         -1.39190        2.35650       -2.64900
C         -0.49560        3.33710       -2.95790
C         -1.08040        4.47140       -3.57080
C         -0.43390        5.64230       -4.01460
C          1.00980        5.75080       -3.97720
C          1.92660        4.78050       -4.27060
C          3.25590        5.22060       -4.10180
Cl         4.60930        4.19380       -4.39160
C          3.37450        6.51750       -3.69440
C          4.61150        7.28340       -3.37880
C          4.93920        7.20920       -1.88550
S          1.80700        7.22420       -3.50190
C         -1.25430        6.65880       -4.48930
C         -2.66000        6.52890       -4.61300
C         -3.29770        5.32640       -4.24590
C         -4.71170        5.09940       -4.45930
C         -5.59510        4.41390       -3.67270
C         -6.88480        4.31950       -4.23130
C         -6.99300        4.91110       -5.45200
C         -8.19120        5.03200       -6.32890
C         -8.72460        6.46560       -6.34210
S         -5.48920        5.62600       -5.92880
C         -2.48440        4.33970       -3.69580
S         -3.02370        2.79180       -3.10110
C         -3.25550        7.71840       -5.10030
C         -2.35810        8.70970       -5.37000
S         -0.71230        8.21920       -5.03600
C         -2.62500       10.02500       -5.85800
C         -3.83970       10.61480       -6.05490
C         -3.75630       11.93660       -6.56000
C         -4.80530       12.82080       -6.88360
C         -6.20410       12.46790       -6.75010
C         -7.23340       13.28550       -6.37400
C         -8.48570       12.63920       -6.40190
Cl        -9.94870       13.43940       -5.97360
C         -8.44270       11.33670       -6.80610
C         -9.56530       10.36250       -6.89930
C         -9.95360        9.84330       -5.51290
S         -6.81040       10.88100       -7.14590
C         -4.43040       14.08020       -7.35180
C         -3.08480       14.48200       -7.51660
C         -2.03960       13.59700       -7.20360
C         -0.64980       13.96440       -7.39530
C         -0.07520       14.58260       -8.46910
C          1.31360       14.77400       -8.32330
C          1.80140       14.31640       -7.13830
C          3.20720       14.32100       -6.64510
C          3.77950       12.90330       -6.59070
S          0.54210       13.61790       -6.17490
C         -2.41000       12.34920       -6.71670
S         -1.29980       11.08490       -6.27200
C         -2.98580       15.82090       -7.99880
C         -4.18660       16.38880       -8.22340
S         -5.51850       15.35070       -7.84930
H          5.79470      -17.29420       11.65770
H          8.30990      -14.07390        7.37360
H         10.04870      -16.18420        7.72400
H         10.18080      -16.64460        9.43480
H         10.44530      -14.96310        8.93070
H         -1.38550      -12.86000        9.45220
H         -1.40120      -15.29450       10.76840
H         -0.95060      -14.06160       11.94330
H          0.06240      -15.50710       11.75300
H          4.10890      -10.82180        5.52480
H          4.60390      -11.11650        3.27550
H          8.80440       -8.87940        2.16810
H          8.39130       -7.31590        2.89300
H          8.89400       -7.04490        0.47990
H          7.19960       -6.65690        0.80410
H          7.62630       -8.20520        0.07000
H         -2.06510       -8.19950        2.82940
H         -4.39720       -8.06640        3.95990
H         -4.36220       -7.65780        7.64220
H         -5.47150       -8.05360        6.32000
H         -5.56840       -9.76860        8.13210
H         -4.95860      -10.48070        6.63360
H         -3.83770      -10.07580        7.93540
H         -0.77940       -6.25450        3.06950
H         -1.34880       -4.66320        1.45250
H         -4.08540       -1.91790       -1.26860
H         -6.88730       -3.46450        2.40710
H         -5.78170       -2.93910        3.68630
H         -4.58970       -5.11970        3.57790
H         -5.67760       -5.65810        2.29300
H         -6.30760       -5.35470        3.91610
H          2.62240        0.99100       -0.60260
H          5.10230        1.00530       -1.36160
H          6.24080       -2.03760       -3.15490
H          6.88650       -0.57930       -2.38600
H          7.08080       -1.82490       -0.22330
H          6.42450       -3.26910       -0.99750
H          7.99390       -2.63180       -1.50340
H          1.01780        0.94940       -2.26810
H          0.54660        3.27280       -2.70850
H          1.67240        3.80330       -4.63730
H          5.43980        6.86590       -3.95530
H          4.47590        8.32690       -3.66910
H          5.09120        6.17570       -1.58360
H          4.12310        7.62580       -1.29960
H          5.84490        7.77080       -1.67210
H         -5.34240        4.01800       -2.70580
H         -7.70340        3.82010       -3.74400
H         -8.96440        4.35340       -5.96300
H         -7.93110        4.73750       -7.34880
H         -7.96080        7.14730       -6.71030
H         -9.59750        6.53800       -6.98600
H         -9.00710        6.76960       -5.33690
H         -4.31320        7.84210       -5.23520
H         -4.76520       10.11960       -5.83150
H         -7.11050       14.30200       -6.05110
H        -10.42750       10.85790       -7.35230
H         -9.26970        9.52740       -7.53600
H        -10.76280        9.12280       -5.59600
H         -9.10230        9.36150       -5.03820
H        -10.28200       10.66530       -4.88220
H         -0.62270       14.85230       -9.35480
H          1.92860       15.23720       -9.07470
H          3.81160       14.93950       -7.31210
H          3.24430       14.75960       -5.64450
H          4.80460       12.92360       -6.22930
H          3.76750       12.45240       -7.58040
H          3.18510       12.28380       -5.92290
H         -2.04950       16.32590       -8.14820
H         -4.39450       17.37810       -8.58130
