86

C          7.52660       -5.19910        3.85390
C          6.39440       -5.58810        4.56430
C          6.10190       -6.81580        5.18010
C          4.92040       -6.94590        5.87200
C          4.03390       -5.87110        5.96920
C          4.30450       -4.64560        5.37440
C          5.46900       -4.49090        4.64120
C          6.03330       -3.36190        3.92450
C          7.39370       -3.82750        3.43860
O          8.18910       -3.19570        2.76060
C          5.45960       -2.18340        3.56660
C          6.04900       -1.05400        2.86130
C          7.34950       -0.57560        2.84760
C          7.63890        0.55810        2.10370
C          6.64800        1.22050        1.39230
C          5.33240        0.78830        1.43860
C          5.02710       -0.33940        2.18490
C          3.75040       -0.96020        2.46010
C          3.99230       -1.87020        3.61240
O          3.19550       -2.15280        4.47200
C          2.54740       -0.78330        1.85070
C          1.36050       -1.58440        2.02410
C          0.26610       -1.13500        1.25570
N         -0.92440       -1.72850        1.30680
C         -1.01150       -2.78340        2.08610
C          0.09790       -3.30320        2.78120
C          0.00680       -4.55860        3.58130
N          1.27060       -2.69380        2.74690
C          0.56420       -0.00920        0.43400
S          2.23590        0.46040        0.62990
C         -0.29170        0.65950       -0.38690
C          0.09510        1.79010       -1.15970
C         -0.95830        2.33290       -1.92650
N         -0.74040        3.39470       -2.69910
C          0.48560        3.88390       -2.69860
C          1.53440        3.34490       -1.93680
C          2.90810        3.92390       -1.96290
N          1.32600        2.29000       -1.16280
C         -2.19530        1.61900       -1.75530
S         -1.98430        0.26600       -0.63800
C         -3.43020        1.81370       -2.30820
C         -4.00520        2.77240       -3.22090
C         -3.49360        3.94950       -3.74600
C         -4.31480        4.74510       -4.52910
C         -5.63940        4.39720       -4.75960
C         -6.16210        3.22140       -4.24570
C         -5.33940        2.38280       -3.50690
C         -5.67290        1.17100       -2.78280
C         -4.48030        0.84660       -1.95650
O         -4.28440       -0.10330       -1.22160
C         -6.78970        0.39540       -2.85580
C         -7.73140        0.23840       -3.93190
C         -7.64800        0.58050       -5.27400
C         -8.67330        0.21140       -6.12890
C         -9.77780       -0.51490       -5.66890
C         -9.85690       -0.92780       -4.36030
C         -8.81910       -0.58370       -3.47640
C         -8.59060       -0.97060       -2.15980
C         -7.32650       -0.43700       -1.70270
O         -6.86160       -0.50970       -0.58320
H          8.37450       -5.81310        3.61190
H          6.80500       -7.63190        5.10940
H          4.67530       -7.88140        6.35320
H          3.11680       -5.99370        6.52620
H          3.60460       -3.83410        5.47880
H          8.12770       -1.06980        3.40300
H          8.65140        0.93210        2.08150
H          6.90060        2.09620        0.81270
H          4.55960        1.33120        0.91840
H         -1.98440       -3.25040        2.14770
H         -0.73740       -4.44730        4.36810
H         -0.29460       -5.39110        2.94760
H          0.97530       -4.76950        4.02550
H          0.64700        4.74630       -3.33140
H          2.88050        4.97770       -1.69130
H          3.53970        3.38350       -1.26400
H          3.32960        3.84500       -2.96400
H         -2.47540        4.23170       -3.53500
H         -3.92550        5.66180       -4.94720
H         -6.27260        5.05240       -5.33960
H         -7.20240        2.97830       -4.39740
H         -6.79260        1.11720       -5.65490
H         -8.62200        0.48840       -7.17120
H        -10.56450       -0.77020       -6.36350
H        -10.68390       -1.52680       -4.01060
H         -9.24930       -1.54490       -1.53540
