
  xtb     03042205253D
 energy: -342.660537977976 gnorm: 0.000608294274 xtb: 6.4.1 (unknown)
198221  0     0  0            999 V2000
    5.5857  -16.5396   10.9277 C   0  0  0  0  0  0  0  0  0  0  0  0
    6.4613  -15.9755   10.0269 C   0  0  0  0  0  0  0  0  0  0  0  0
    5.8228  -14.9898    9.1993 C   0  0  0  0  0  0  0  0  0  0  0  0
    6.4924  -14.3129    8.2507 N   0  0  0  0  0  0  0  0  0  0  0  0
    7.7569  -14.6100    8.1330 C   0  0  0  0  0  0  0  0  0  0  0  0
    8.4098  -15.5862    8.9460 C   0  0  0  0  0  0  0  0  0  0  0  0
    9.8630  -15.8654    8.7484 C   0  0  0  0  0  0  0  0  0  0  0  0
    7.7777  -16.2557    9.8730 N   0  0  0  0  0  0  0  0  0  0  0  0
    4.4686  -14.8297    9.4957 C   0  0  0  0  0  0  0  0  0  0  0  0
    4.0058  -15.8884   10.7807 S   0  0  0  0  0  0  0  0  0  0  0  0
    3.5816  -13.9456    8.8635 C   0  0  0  0  0  0  0  0  0  0  0  0
    2.2251  -13.7598    9.1404 C   0  0  0  0  0  0  0  0  0  0  0  0
    1.6214  -12.7740    8.3010 C   0  0  0  0  0  0  0  0  0  0  0  0
    0.3181  -12.4605    8.4229 N   0  0  0  0  0  0  0  0  0  0  0  0
   -0.3374  -13.1060    9.3464 C   0  0  0  0  0  0  0  0  0  0  0  0
    0.2563  -14.0892   10.1909 C   0  0  0  0  0  0  0  0  0  0  0  0
   -0.5572  -14.7845   11.2301 C   0  0  0  0  0  0  0  0  0  0  0  0
    1.5228  -14.4104   10.0844 N   0  0  0  0  0  0  0  0  0  0  0  0
    2.5161  -12.2079    7.3910 C   0  0  0  0  0  0  0  0  0  0  0  0
    4.0973  -12.9044    7.5774 S   0  0  0  0  0  0  0  0  0  0  0  0
    2.2114  -11.2012    6.4494 C   0  0  0  0  0  0  0  0  0  0  0  0
    3.0609  -10.5873    5.5667 C   0  0  0  0  0  0  0  0  0  0  0  0
    2.4333   -9.6015    4.7753 C   0  0  0  0  0  0  0  0  0  0  0  0
    3.0157   -8.7818    3.7841 C   0  0  0  0  0  0  0  0  0  0  0  0
    4.3908   -8.9690    3.3713 C   0  0  0  0  0  0  0  0  0  0  0  0
    5.0544  -10.1468    3.1734 C   0  0  0  0  0  0  0  0  0  0  0  0
    6.3878   -9.9546    2.7535 C   0  0  0  0  0  0  0  0  0  0  0  0
    7.4447  -11.2747    2.4233 Cl  0  0  0  0  0  0  0  0  0  0  0  0
    6.7613   -8.6478    2.6356 C   0  0  0  0  0  0  0  0  0  0  0  0
    8.0615   -8.0798    2.1849 C   0  0  0  0  0  0  0  0  0  0  0  0
    7.9377   -7.4557    0.7935 C   0  0  0  0  0  0  0  0  0  0  0  0
    5.4331   -7.6142    3.0389 S   0  0  0  0  0  0  0  0  0  0  0  0
    2.1987   -7.8028    3.2314 C   0  0  0  0  0  0  0  0  0  0  0  0
    0.8292   -7.6628    3.5640 C   0  0  0  0  0  0  0  0  0  0  0  0
    0.2276   -8.5326    4.4957 C   0  0  0  0  0  0  0  0  0  0  0  0
   -1.1897   -8.4407    4.7809 C   0  0  0  0  0  0  0  0  0  0  0  0
   -2.2130   -8.2531    3.8933 C   0  0  0  0  0  0  0  0  0  0  0  0
   -3.4802   -8.2022    4.5060 C   0  0  0  0  0  0  0  0  0  0  0  0
   -3.4302   -8.3391    5.8593 C   0  0  0  0  0  0  0  0  0  0  0  0
   -4.5583   -8.3647    6.8320 C   0  0  0  0  0  0  0  0  0  0  0  0
   -4.7445   -9.7634    7.4226 C   0  0  0  0  0  0  0  0  0  0  0  0
   -1.7994   -8.5545    6.4059 S   0  0  0  0  0  0  0  0  0  0  0  0
    1.0605   -9.4605    5.1072 C   0  0  0  0  0  0  0  0  0  0  0  0
    0.5766  -10.5906    6.3463 S   0  0  0  0  0  0  0  0  0  0  0  0
    0.2328   -6.5680    2.8965 C   0  0  0  0  0  0  0  0  0  0  0  0
    1.0852   -5.9041    2.0624 C   0  0  0  0  0  0  0  0  0  0  0  0
    2.6848   -6.6115    2.0550 S   0  0  0  0  0  0  0  0  0  0  0  0
    0.7858   -4.7367    1.2990 C   0  0  0  0  0  0  0  0  0  0  0  0
   -0.4512   -4.1968    1.0951 C   0  0  0  0  0  0  0  0  0  0  0  0
   -0.4323   -2.9892    0.3590 C   0  0  0  0  0  0  0  0  0  0  0  0
   -1.5221   -2.1635    0.0162 C   0  0  0  0  0  0  0  0  0  0  0  0
   -2.8771   -2.4524    0.4411 C   0  0  0  0  0  0  0  0  0  0  0  0
   -4.0377   -2.2649   -0.2533 C   0  0  0  0  0  0  0  0  0  0  0  0
   -5.1831   -2.6281    0.4883 C   0  0  0  0  0  0  0  0  0  0  0  0
   -6.7719   -2.5095   -0.1661 Cl  0  0  0  0  0  0  0  0  0  0  0  0
   -4.9246   -3.0760    1.7504 C   0  0  0  0  0  0  0  0  0  0  0  0
   -5.8707   -3.5628    2.7923 C   0  0  0  0  0  0  0  0  0  0  0  0
   -5.5930   -5.0188    3.1690 C   0  0  0  0  0  0  0  0  0  0  0  0
   -3.2186   -3.0594    2.0397 S   0  0  0  0  0  0  0  0  0  0  0  0
   -1.2255   -1.0282   -0.7315 C   0  0  0  0  0  0  0  0  0  0  0  0
    0.0918   -0.6706   -1.1097 C   0  0  0  0  0  0  0  0  0  0  0  0
    1.1832   -1.4829   -0.7452 C   0  0  0  0  0  0  0  0  0  0  0  0
    2.5444   -1.1087   -1.0712 C   0  0  0  0  0  0  0  0  0  0  0  0
    3.1311    0.1228   -0.9826 C   0  0  0  0  0  0  0  0  0  0  0  0
    4.4849    0.1243   -1.3723 C   0  0  0  0  0  0  0  0  0  0  0  0
    4.9353   -1.0975   -1.7682 C   0  0  0  0  0  0  0  0  0  0  0  0
    6.3026   -1.4859   -2.2134 C   0  0  0  0  0  0  0  0  0  0  0  0
    6.9967   -2.3597   -1.1667 C   0  0  0  0  0  0  0  0  0  0  0  0
    3.6839   -2.2901   -1.6515 S   0  0  0  0  0  0  0  0  0  0  0  0
    0.8825   -2.6394   -0.0360 C   0  0  0  0  0  0  0  0  0  0  0  0
    2.0495   -3.7945    0.5476 S   0  0  0  0  0  0  0  0  0  0  0  0
    0.1202    0.5392   -1.8452 C   0  0  0  0  0  0  0  0  0  0  0  0
   -1.1057    1.1153   -2.0025 C   0  0  0  0  0  0  0  0  0  0  0  0
   -2.3783    0.1626   -1.2704 S   0  0  0  0  0  0  0  0  0  0  0  0
   -1.3919    2.3565   -2.6490 C   0  0  0  0  0  0  0  0  0  0  0  0
   -0.4956    3.3371   -2.9579 C   0  0  0  0  0  0  0  0  0  0  0  0
   -1.0804    4.4714   -3.5708 C   0  0  0  0  0  0  0  0  0  0  0  0
   -0.4339    5.6423   -4.0146 C   0  0  0  0  0  0  0  0  0  0  0  0
    1.0098    5.7508   -3.9772 C   0  0  0  0  0  0  0  0  0  0  0  0
    1.9266    4.7805   -4.2706 C   0  0  0  0  0  0  0  0  0  0  0  0
    3.2559    5.2206   -4.1018 C   0  0  0  0  0  0  0  0  0  0  0  0
    4.6093    4.1938   -4.3916 Cl  0  0  0  0  0  0  0  0  0  0  0  0
    3.3745    6.5175   -3.6944 C   0  0  0  0  0  0  0  0  0  0  0  0
    4.6115    7.2834   -3.3788 C   0  0  0  0  0  0  0  0  0  0  0  0
    4.9392    7.2092   -1.8855 C   0  0  0  0  0  0  0  0  0  0  0  0
    1.8070    7.2242   -3.5019 S   0  0  0  0  0  0  0  0  0  0  0  0
   -1.2543    6.6588   -4.4893 C   0  0  0  0  0  0  0  0  0  0  0  0
   -2.6600    6.5289   -4.6130 C   0  0  0  0  0  0  0  0  0  0  0  0
   -3.2977    5.3264   -4.2459 C   0  0  0  0  0  0  0  0  0  0  0  0
   -4.7117    5.0994   -4.4593 C   0  0  0  0  0  0  0  0  0  0  0  0
   -5.5951    4.4139   -3.6727 C   0  0  0  0  0  0  0  0  0  0  0  0
   -6.8848    4.3195   -4.2313 C   0  0  0  0  0  0  0  0  0  0  0  0
   -6.9930    4.9111   -5.4520 C   0  0  0  0  0  0  0  0  0  0  0  0
   -8.1912    5.0320   -6.3289 C   0  0  0  0  0  0  0  0  0  0  0  0
   -8.7246    6.4656   -6.3421 C   0  0  0  0  0  0  0  0  0  0  0  0
   -5.4892    5.6260   -5.9288 S   0  0  0  0  0  0  0  0  0  0  0  0
   -2.4844    4.3397   -3.6958 C   0  0  0  0  0  0  0  0  0  0  0  0
   -3.0237    2.7918   -3.1011 S   0  0  0  0  0  0  0  0  0  0  0  0
   -3.2555    7.7184   -5.1003 C   0  0  0  0  0  0  0  0  0  0  0  0
   -2.3581    8.7097   -5.3700 C   0  0  0  0  0  0  0  0  0  0  0  0
   -0.7123    8.2192   -5.0360 S   0  0  0  0  0  0  0  0  0  0  0  0
   -2.6250   10.0250   -5.8580 C   0  0  0  0  0  0  0  0  0  0  0  0
   -3.8397   10.6148   -6.0549 C   0  0  0  0  0  0  0  0  0  0  0  0
   -3.7563   11.9366   -6.5600 C   0  0  0  0  0  0  0  0  0  0  0  0
   -4.8053   12.8208   -6.8836 C   0  0  0  0  0  0  0  0  0  0  0  0
   -6.2041   12.4679   -6.7501 C   0  0  0  0  0  0  0  0  0  0  0  0
   -7.2334   13.2855   -6.3740 C   0  0  0  0  0  0  0  0  0  0  0  0
   -8.4857   12.6392   -6.4019 C   0  0  0  0  0  0  0  0  0  0  0  0
   -9.9487   13.4394   -5.9736 Cl  0  0  0  0  0  0  0  0  0  0  0  0
   -8.4427   11.3367   -6.8061 C   0  0  0  0  0  0  0  0  0  0  0  0
   -9.5653   10.3625   -6.8993 C   0  0  0  0  0  0  0  0  0  0  0  0
   -9.9536    9.8433   -5.5129 C   0  0  0  0  0  0  0  0  0  0  0  0
   -6.8104   10.8810   -7.1459 S   0  0  0  0  0  0  0  0  0  0  0  0
   -4.4304   14.0802   -7.3518 C   0  0  0  0  0  0  0  0  0  0  0  0
   -3.0848   14.4820   -7.5166 C   0  0  0  0  0  0  0  0  0  0  0  0
   -2.0396   13.5970   -7.2036 C   0  0  0  0  0  0  0  0  0  0  0  0
   -0.6498   13.9644   -7.3953 C   0  0  0  0  0  0  0  0  0  0  0  0
   -0.0752   14.5826   -8.4691 C   0  0  0  0  0  0  0  0  0  0  0  0
    1.3136   14.7740   -8.3233 C   0  0  0  0  0  0  0  0  0  0  0  0
    1.8014   14.3164   -7.1383 C   0  0  0  0  0  0  0  0  0  0  0  0
    3.2072   14.3210   -6.6451 C   0  0  0  0  0  0  0  0  0  0  0  0
    3.7795   12.9033   -6.5907 C   0  0  0  0  0  0  0  0  0  0  0  0
    0.5421   13.6179   -6.1749 S   0  0  0  0  0  0  0  0  0  0  0  0
   -2.4100   12.3492   -6.7167 C   0  0  0  0  0  0  0  0  0  0  0  0
   -1.2998   11.0849   -6.2720 S   0  0  0  0  0  0  0  0  0  0  0  0
   -2.9858   15.8209   -7.9988 C   0  0  0  0  0  0  0  0  0  0  0  0
   -4.1866   16.3888   -8.2234 C   0  0  0  0  0  0  0  0  0  0  0  0
   -5.5185   15.3507   -7.8493 S   0  0  0  0  0  0  0  0  0  0  0  0
    5.7947  -17.2942   11.6577 H   0  0  0  0  0  0  0  0  0  0  0  0
    8.3099  -14.0739    7.3736 H   0  0  0  0  0  0  0  0  0  0  0  0
   10.0487  -16.1842    7.7240 H   0  0  0  0  0  0  0  0  0  0  0  0
   10.1808  -16.6446    9.4348 H   0  0  0  0  0  0  0  0  0  0  0  0
   10.4453  -14.9631    8.9307 H   0  0  0  0  0  0  0  0  0  0  0  0
   -1.3855  -12.8600    9.4522 H   0  0  0  0  0  0  0  0  0  0  0  0
   -1.4012  -15.2945   10.7684 H   0  0  0  0  0  0  0  0  0  0  0  0
   -0.9506  -14.0616   11.9433 H   0  0  0  0  0  0  0  0  0  0  0  0
    0.0624  -15.5071   11.7530 H   0  0  0  0  0  0  0  0  0  0  0  0
    4.1089  -10.8218    5.5248 H   0  0  0  0  0  0  0  0  0  0  0  0
    4.6039  -11.1165    3.2755 H   0  0  0  0  0  0  0  0  0  0  0  0
    8.8044   -8.8794    2.1681 H   0  0  0  0  0  0  0  0  0  0  0  0
    8.3913   -7.3159    2.8930 H   0  0  0  0  0  0  0  0  0  0  0  0
    8.8940   -7.0449    0.4799 H   0  0  0  0  0  0  0  0  0  0  0  0
    7.1996   -6.6569    0.8041 H   0  0  0  0  0  0  0  0  0  0  0  0
    7.6263   -8.2052    0.0700 H   0  0  0  0  0  0  0  0  0  0  0  0
   -2.0651   -8.1995    2.8294 H   0  0  0  0  0  0  0  0  0  0  0  0
   -4.3972   -8.0664    3.9599 H   0  0  0  0  0  0  0  0  0  0  0  0
   -4.3622   -7.6578    7.6422 H   0  0  0  0  0  0  0  0  0  0  0  0
   -5.4715   -8.0536    6.3200 H   0  0  0  0  0  0  0  0  0  0  0  0
   -5.5684   -9.7686    8.1321 H   0  0  0  0  0  0  0  0  0  0  0  0
   -4.9586  -10.4807    6.6336 H   0  0  0  0  0  0  0  0  0  0  0  0
   -3.8377  -10.0758    7.9354 H   0  0  0  0  0  0  0  0  0  0  0  0
   -0.7794   -6.2545    3.0695 H   0  0  0  0  0  0  0  0  0  0  0  0
   -1.3488   -4.6632    1.4525 H   0  0  0  0  0  0  0  0  0  0  0  0
   -4.0854   -1.9179   -1.2686 H   0  0  0  0  0  0  0  0  0  0  0  0
   -6.8873   -3.4645    2.4071 H   0  0  0  0  0  0  0  0  0  0  0  0
   -5.7817   -2.9391    3.6863 H   0  0  0  0  0  0  0  0  0  0  0  0
   -4.5897   -5.1197    3.5779 H   0  0  0  0  0  0  0  0  0  0  0  0
   -5.6776   -5.6581    2.2930 H   0  0  0  0  0  0  0  0  0  0  0  0
   -6.3076   -5.3547    3.9161 H   0  0  0  0  0  0  0  0  0  0  0  0
    2.6224    0.9910   -0.6026 H   0  0  0  0  0  0  0  0  0  0  0  0
    5.1023    1.0053   -1.3616 H   0  0  0  0  0  0  0  0  0  0  0  0
    6.2408   -2.0376   -3.1549 H   0  0  0  0  0  0  0  0  0  0  0  0
    6.8865   -0.5793   -2.3860 H   0  0  0  0  0  0  0  0  0  0  0  0
    7.0808   -1.8249   -0.2233 H   0  0  0  0  0  0  0  0  0  0  0  0
    6.4245   -3.2691   -0.9975 H   0  0  0  0  0  0  0  0  0  0  0  0
    7.9939   -2.6318   -1.5034 H   0  0  0  0  0  0  0  0  0  0  0  0
    1.0178    0.9494   -2.2681 H   0  0  0  0  0  0  0  0  0  0  0  0
    0.5466    3.2728   -2.7085 H   0  0  0  0  0  0  0  0  0  0  0  0
    1.6724    3.8033   -4.6373 H   0  0  0  0  0  0  0  0  0  0  0  0
    5.4398    6.8659   -3.9553 H   0  0  0  0  0  0  0  0  0  0  0  0
    4.4759    8.3269   -3.6691 H   0  0  0  0  0  0  0  0  0  0  0  0
    5.0912    6.1757   -1.5836 H   0  0  0  0  0  0  0  0  0  0  0  0
    4.1231    7.6258   -1.2996 H   0  0  0  0  0  0  0  0  0  0  0  0
    5.8449    7.7708   -1.6721 H   0  0  0  0  0  0  0  0  0  0  0  0
   -5.3424    4.0180   -2.7058 H   0  0  0  0  0  0  0  0  0  0  0  0
   -7.7034    3.8201   -3.7440 H   0  0  0  0  0  0  0  0  0  0  0  0
   -8.9644    4.3534   -5.9630 H   0  0  0  0  0  0  0  0  0  0  0  0
   -7.9311    4.7375   -7.3488 H   0  0  0  0  0  0  0  0  0  0  0  0
   -7.9608    7.1473   -6.7103 H   0  0  0  0  0  0  0  0  0  0  0  0
   -9.5975    6.5380   -6.9860 H   0  0  0  0  0  0  0  0  0  0  0  0
   -9.0071    6.7696   -5.3369 H   0  0  0  0  0  0  0  0  0  0  0  0
   -4.3132    7.8421   -5.2352 H   0  0  0  0  0  0  0  0  0  0  0  0
   -4.7652   10.1196   -5.8315 H   0  0  0  0  0  0  0  0  0  0  0  0
   -7.1105   14.3020   -6.0511 H   0  0  0  0  0  0  0  0  0  0  0  0
  -10.4275   10.8579   -7.3523 H   0  0  0  0  0  0  0  0  0  0  0  0
   -9.2697    9.5274   -7.5360 H   0  0  0  0  0  0  0  0  0  0  0  0
  -10.7628    9.1228   -5.5960 H   0  0  0  0  0  0  0  0  0  0  0  0
   -9.1023    9.3615   -5.0382 H   0  0  0  0  0  0  0  0  0  0  0  0
  -10.2820   10.6653   -4.8822 H   0  0  0  0  0  0  0  0  0  0  0  0
   -0.6227   14.8523   -9.3548 H   0  0  0  0  0  0  0  0  0  0  0  0
    1.9286   15.2372   -9.0747 H   0  0  0  0  0  0  0  0  0  0  0  0
    3.8116   14.9395   -7.3121 H   0  0  0  0  0  0  0  0  0  0  0  0
    3.2443   14.7596   -5.6445 H   0  0  0  0  0  0  0  0  0  0  0  0
    4.8046   12.9236   -6.2293 H   0  0  0  0  0  0  0  0  0  0  0  0
    3.7675   12.4524   -7.5804 H   0  0  0  0  0  0  0  0  0  0  0  0
    3.1851   12.2838   -5.9229 H   0  0  0  0  0  0  0  0  0  0  0  0
   -2.0495   16.3259   -8.1482 H   0  0  0  0  0  0  0  0  0  0  0  0
   -4.3945   17.3781   -8.5813 H   0  0  0  0  0  0  0  0  0  0  0  0
  1  2  2  0  0  0  0
  2  3  1  0  0  0  0
  3  4  1  0  0  0  0
  4  5  2  0  0  0  0
  5  6  1  0  0  0  0
  6  7  1  0  0  0  0
  6  8  2  0  0  0  0
  3  9  2  0  0  0  0
  9 10  1  0  0  0  0
  9 11  1  0  0  0  0
 11 12  2  0  0  0  0
 12 13  1  0  0  0  0
 13 14  1  0  0  0  0
 14 15  2  0  0  0  0
 15 16  1  0  0  0  0
 16 17  1  0  0  0  0
 16 18  2  0  0  0  0
 13 19  2  0  0  0  0
 19 20  1  0  0  0  0
 19 21  1  0  0  0  0
 21 22  2  0  0  0  0
 22 23  1  0  0  0  0
 23 24  2  0  0  0  0
 24 25  1  0  0  0  0
 25 26  2  0  0  0  0
 26 27  1  0  0  0  0
 27 28  1  0  0  0  0
 27 29  2  0  0  0  0
 29 30  1  0  0  0  0
 30 31  1  0  0  0  0
 29 32  1  0  0  0  0
 24 33  1  0  0  0  0
 33 34  2  0  0  0  0
 34 35  1  0  0  0  0
 35 36  1  0  0  0  0
 36 37  2  0  0  0  0
 37 38  1  0  0  0  0
 38 39  2  0  0  0  0
 39 40  1  0  0  0  0
 40 41  1  0  0  0  0
 39 42  1  0  0  0  0
 35 43  2  0  0  0  0
 43 44  1  0  0  0  0
 34 45  1  0  0  0  0
 45 46  2  0  0  0  0
 46 47  1  0  0  0  0
 46 48  1  0  0  0  0
 48 49  2  0  0  0  0
 49 50  1  0  0  0  0
 50 51  2  0  0  0  0
 51 52  1  0  0  0  0
 52 53  2  0  0  0  0
 53 54  1  0  0  0  0
 54 55  1  0  0  0  0
 54 56  2  0  0  0  0
 56 57  1  0  0  0  0
 57 58  1  0  0  0  0
 56 59  1  0  0  0  0
 51 60  1  0  0  0  0
 60 61  2  0  0  0  0
 61 62  1  0  0  0  0
 62 63  1  0  0  0  0
 63 64  2  0  0  0  0
 64 65  1  0  0  0  0
 65 66  2  0  0  0  0
 66 67  1  0  0  0  0
 67 68  1  0  0  0  0
 66 69  1  0  0  0  0
 62 70  2  0  0  0  0
 70 71  1  0  0  0  0
 61 72  1  0  0  0  0
 72 73  2  0  0  0  0
 73 74  1  0  0  0  0
 73 75  1  0  0  0  0
 75 76  2  0  0  0  0
 76 77  1  0  0  0  0
 77 78  2  0  0  0  0
 78 79  1  0  0  0  0
 79 80  2  0  0  0  0
 80 81  1  0  0  0  0
 81 82  1  0  0  0  0
 81 83  2  0  0  0  0
 83 84  1  0  0  0  0
 84 85  1  0  0  0  0
 83 86  1  0  0  0  0
 78 87  1  0  0  0  0
 87 88  2  0  0  0  0
 88 89  1  0  0  0  0
 89 90  1  0  0  0  0
 90 91  2  0  0  0  0
 91 92  1  0  0  0  0
 92 93  2  0  0  0  0
 93 94  1  0  0  0  0
 94 95  1  0  0  0  0
 93 96  1  0  0  0  0
 89 97  2  0  0  0  0
 97 98  1  0  0  0  0
 88 99  1  0  0  0  0
 99100  2  0  0  0  0
100101  1  0  0  0  0
100102  1  0  0  0  0
102103  2  0  0  0  0
103104  1  0  0  0  0
104105  2  0  0  0  0
105106  1  0  0  0  0
106107  2  0  0  0  0
107108  1  0  0  0  0
108109  1  0  0  0  0
108110  2  0  0  0  0
110111  1  0  0  0  0
111112  1  0  0  0  0
110113  1  0  0  0  0
105114  1  0  0  0  0
114115  2  0  0  0  0
115116  1  0  0  0  0
116117  1  0  0  0  0
117118  2  0  0  0  0
118119  1  0  0  0  0
119120  2  0  0  0  0
120121  1  0  0  0  0
121122  1  0  0  0  0
120123  1  0  0  0  0
116124  2  0  0  0  0
124125  1  0  0  0  0
115126  1  0  0  0  0
126127  2  0  0  0  0
127128  1  0  0  0  0
 10  1  1  0  0  0  0
 20 11  1  0  0  0  0
 44 21  1  0  0  0  0
 71 48  1  0  0  0  0
 98 75  1  0  0  0  0
125102  1  0  0  0  0
  8  2  1  0  0  0  0
 18 12  1  0  0  0  0
 43 23  1  0  0  0  0
 70 50  1  0  0  0  0
 97 77  1  0  0  0  0
124104  1  0  0  0  0
 32 25  1  0  0  0  0
 47 33  1  0  0  0  0
 59 52  1  0  0  0  0
 74 60  1  0  0  0  0
 86 79  1  0  0  0  0
101 87  1  0  0  0  0
113106  1  0  0  0  0
128114  1  0  0  0  0
 42 36  1  0  0  0  0
 69 63  1  0  0  0  0
 96 90  1  0  0  0  0
123117  1  0  0  0  0
  1129  1  0  0  0  0
  5130  1  0  0  0  0
  7131  1  0  0  0  0
  7132  1  0  0  0  0
  7133  1  0  0  0  0
 15134  1  0  0  0  0
 17135  1  0  0  0  0
 17136  1  0  0  0  0
 17137  1  0  0  0  0
 22138  1  0  0  0  0
 26139  1  0  0  0  0
 30140  1  0  0  0  0
 30141  1  0  0  0  0
 31142  1  0  0  0  0
 31143  1  0  0  0  0
 31144  1  0  0  0  0
 37145  1  0  0  0  0
 38146  1  0  0  0  0
 40147  1  0  0  0  0
 40148  1  0  0  0  0
 41149  1  0  0  0  0
 41150  1  0  0  0  0
 41151  1  0  0  0  0
 45152  1  0  0  0  0
 49153  1  0  0  0  0
 53154  1  0  0  0  0
 57155  1  0  0  0  0
 57156  1  0  0  0  0
 58157  1  0  0  0  0
 58158  1  0  0  0  0
 58159  1  0  0  0  0
 64160  1  0  0  0  0
 65161  1  0  0  0  0
 67162  1  0  0  0  0
 67163  1  0  0  0  0
 68164  1  0  0  0  0
 68165  1  0  0  0  0
 68166  1  0  0  0  0
 72167  1  0  0  0  0
 76168  1  0  0  0  0
 80169  1  0  0  0  0
 84170  1  0  0  0  0
 84171  1  0  0  0  0
 85172  1  0  0  0  0
 85173  1  0  0  0  0
 85174  1  0  0  0  0
 91175  1  0  0  0  0
 92176  1  0  0  0  0
 94177  1  0  0  0  0
 94178  1  0  0  0  0
 95179  1  0  0  0  0
 95180  1  0  0  0  0
 95181  1  0  0  0  0
 99182  1  0  0  0  0
103183  1  0  0  0  0
107184  1  0  0  0  0
111185  1  0  0  0  0
111186  1  0  0  0  0
112187  1  0  0  0  0
112188  1  0  0  0  0
112189  1  0  0  0  0
118190  1  0  0  0  0
119191  1  0  0  0  0
121192  1  0  0  0  0
121193  1  0  0  0  0
122194  1  0  0  0  0
122195  1  0  0  0  0
122196  1  0  0  0  0
126197  1  0  0  0  0
127198  1  0  0  0  0
M  END
