230

C         -0.40010        0.34410       15.97390
C          0.09040       -0.91150       15.93910
C         -0.27740       -1.62040       14.75700
C          0.09230       -2.91880       14.37290
C          0.91600       -3.77220       15.23900
C          0.56980       -4.00680       16.56880
C          1.36240       -4.79890       17.37020
C          2.52790       -5.39410       16.88550
S          3.42480       -6.39970       18.02930
C          5.18870       -6.27860       17.53300
C          5.67420       -7.51310       16.79930
C          2.84130       -5.17690       15.54800
F          3.93230       -5.74450       14.98410
C          2.06280       -4.37610       14.73720
C         -0.34490       -3.35470       13.13140
C         -1.12800       -2.54720       12.26670
C         -1.48940       -1.24180       12.64360
C         -2.24540       -0.37190       11.73530
C         -1.82770       -0.18650       10.41690
C         -2.53740        0.62690        9.56140
C         -3.68870        1.29270        9.98180
S         -4.48870        2.33960        8.80810
C         -6.27140        2.20190        9.23030
C         -7.09240        2.58280        8.01440
C         -4.07880        1.11970       11.30640
C         -3.38240        0.29950       12.17100
F         -5.16520        1.75780       11.79780
C         -1.06480       -0.81900       13.89440
S         -1.33900        0.76220       14.58210
C         -1.47280       -3.23240       11.08050
C         -0.96830       -4.50410       11.02170
S         -0.05210       -4.93790       12.44670
C         -1.06950       -5.41330        9.94790
C         -0.53620       -6.69990        9.88080
C         -0.72730       -7.34360        8.61440
N         -0.25120       -8.58410        8.41090
C          0.37930       -9.13340        9.41020
C          0.58180       -8.49640       10.66890
C          1.32060       -9.18130       11.76750
N          0.12210       -7.29140       10.89240
C         -1.40420       -6.52690        7.69410
S         -1.82070       -5.00790        8.44430
C         -1.67780       -6.68570        6.32530
C         -1.40970       -7.73750        5.43420
C         -1.70190       -7.39580        4.07210
N         -1.47050       -8.25840        3.06420
C         -0.97870       -9.41610        3.40580
C         -0.70710       -9.77660        4.75660
C         -0.16960      -11.12670        5.09340
N         -0.92180       -8.94650        5.74600
C         -2.21030       -6.10680        3.91200
S         -2.34930       -5.33350        5.45560
C         -2.44870       -5.39650        2.71660
C         -2.89490       -4.10400        2.62160
C         -2.84740       -3.58630        1.31090
C         -3.13030       -2.27140        0.89600
C         -3.58320       -1.24820        1.84670
C         -4.73520       -0.50630        1.59230
C         -5.17360        0.44010        2.49360
C         -4.48580        0.68560        3.67990
S         -5.17550        1.87280        4.79590
C         -3.72450        2.83450        5.35680
C         -2.99560        3.47930        4.19590
C         -3.33930       -0.06480        3.92270
F         -2.63110        0.09940        5.06240
C         -2.88120       -1.00610        3.02340
C         -2.93290       -1.98910       -0.44490
C         -2.47550       -2.95800       -1.37220
C         -2.19420       -4.27310       -0.95850
C         -1.66250       -5.24710       -1.92060
C         -2.24810       -6.49850       -2.09950
C         -1.77890       -7.35790       -3.06930
C         -0.71430       -7.01430       -3.90540
S         -0.32840       -8.17170       -5.18310
C          1.42810       -7.90760       -5.62540
C          2.35850       -8.17650       -4.46060
C         -0.12210       -5.77400       -3.69330
C         -0.57100       -4.91090       -2.71490
F          0.91700       -5.34600       -4.44890
C         -2.39440       -4.56050        0.38000
S         -2.02530       -6.08080        1.16310
C         -2.29500       -2.40550       -2.65980
C         -2.52100       -1.05960       -2.72200
S         -3.07690       -0.41580       -1.19120
C         -2.20270       -0.22920       -3.83870
C         -1.57040       -0.65600       -4.97160
C         -1.18940        0.38920       -5.84260
C         -0.46730        0.27080       -7.04240
C          0.01080       -1.04770       -7.48060
C          0.75110       -1.84420       -6.60680
C          1.13090       -3.11930       -6.96560
C          0.78960       -3.64610       -8.20810
S          1.28740       -5.30920       -8.56580
C         -0.24770       -6.04630       -9.24060
C         -1.38810       -5.98720       -8.24440
C          0.11200       -2.81690       -9.09640
F         -0.19850       -3.24880      -10.33740
C         -0.28360       -1.54020       -8.74620
C         -0.19950        1.44670       -7.72100
C         -0.61700        2.71440       -7.24280
C         -1.34750        2.83110       -6.04660
C         -1.76720        4.15640       -5.57450
C         -2.45870        5.01820       -6.42630
C         -2.77690        6.29720       -6.02610
C         -2.41810        6.76860       -4.76450
S         -2.83330        8.43620       -4.36190
C         -1.37220        8.99860       -3.39680
C         -1.17290       10.48360       -3.62550
C         -1.78280        5.87810       -3.90340
C         -1.45180        4.59570       -4.29380
F         -1.45530        6.25300       -2.64690
C         -1.59940        1.65650       -5.35780
S         -2.42170        1.50830       -3.82410
C         -0.11080        3.76770       -8.04060
C          0.65580        3.34620       -9.08830
S          0.76630        1.59990       -9.16600
C          1.36300        4.18960       -9.99870
C          1.37220        5.55390       -9.98410
C          2.22880        6.12780      -10.95470
C          2.49250        7.49080      -11.16470
C          1.91300        8.50540      -10.27600
C          2.03110        8.37590       -8.89160
C          1.47260        9.31010       -8.04760
C          0.76410       10.40380       -8.54270
S          0.02600       11.48300       -7.35190
C          0.22110       13.15710       -8.06290
C          1.67390       13.49190       -8.33310
C          0.65010       10.51760       -9.92490
F         -0.04640       11.53280      -10.48090
C          1.22540        9.60140      -10.78340
C          3.33940        7.80200      -12.21760
C          3.96960        6.81790      -13.01820
C          3.74220        5.45490      -12.77630
C          4.43960        4.40580      -13.53020
C          5.82830        4.42130      -13.65740
C          6.48380        3.40550      -14.31770
C          5.78590        2.34250      -14.89110
S          6.73340        1.11380      -15.73060
C          5.77560       -0.43380      -15.47210
C          6.71720       -1.61640      -15.58440
C          4.39800        2.35950      -14.78710
C          3.73100        3.35720      -14.10570
F          3.64730        1.39650      -15.36640
C          2.85140        5.14300      -11.75910
S          2.39920        3.53600      -11.24920
C          4.78970        7.40980      -14.02540
C          4.80000        8.75640      -13.97120
S          3.81700        9.40820      -12.70410
H         -0.27270        1.08020       16.74350
H          0.70930       -1.33190       16.71080
H         -0.33400       -3.57390       16.96960
H          1.09340       -4.97620       18.40010
H          5.72130       -6.15530       18.47660
H          5.30640       -5.37500       16.94020
H          5.52650       -8.39940       17.41220
H          5.13880       -7.64280       15.86300
H          6.73520       -7.41220       16.57950
H          2.36810       -4.22810       13.71340
H         -0.92980       -0.67340       10.06870
H         -2.21280        0.76110        8.54120
H         -6.47990        2.86260       10.07040
H         -6.45050        1.16720        9.51900
H         -6.84660        1.94530        7.16820
H         -8.15120        2.47590        8.24000
H         -6.90030        3.61540        7.73180
H         -3.74330        0.18930       13.18170
H         -2.08010       -2.81590       10.29680
H          0.75850      -10.13310        9.24270
H          2.32290       -9.44910       11.43650
H          1.38610       -8.52030       12.62700
H          0.80490      -10.09720       12.05290
H         -0.78960      -10.11390        2.60090
H         -0.02980      -11.19300        6.16800
H          0.78190      -11.28990        4.58940
H         -0.86130      -11.90150        4.76590
H         -3.22740       -3.54860        3.48000
H         -5.29610       -0.68420        0.68780
H         -6.06830        1.00920        2.29570
H         -3.07720        2.18700        5.94280
H         -4.15860        3.58220        6.01960
H         -2.18450        4.09870        4.57330
H         -2.57330        2.72550        3.53330
H         -3.67300        4.10450        3.61790
H         -1.97060       -1.53940        3.24900
H         -3.08770       -6.78800       -1.48740
H         -2.24530       -8.31990       -3.21440
H          1.55090       -6.90670       -6.03320
H          1.58490       -8.63170       -6.42560
H          2.19480       -9.17620       -4.06310
H          2.20230       -7.45660       -3.66040
H          3.39070       -8.09700       -4.79540
H         -0.05500       -3.97220       -2.58180
H         -1.99450       -2.98830       -3.50960
H         -1.36380       -1.68900       -5.17820
H          1.02910       -1.45530       -5.63900
H          1.68510       -3.73890       -6.27890
H          0.03550       -7.07700       -9.45310
H         -0.49410       -5.54610      -10.17480
H         -2.26590       -6.47440       -8.66400
H         -1.11930       -6.49650       -7.32160
H         -1.64590       -4.95530       -8.01020
H         -0.83160       -0.94780       -9.46240
H         -2.74640        4.67620       -7.40900
H         -3.29920        6.96690       -6.69140
H         -1.55000        8.77610       -2.34540
H         -0.51580        8.42910       -3.75390
H         -0.99700       10.68850       -4.67940
H         -0.31530       10.83040       -3.05270
H         -2.05180       11.03920       -3.30690
H         -0.93470        3.95670       -3.59510
H         -0.28100        4.80370       -7.81460
H          0.77920        6.14090       -9.30800
H          2.58960        7.54890       -8.48000
H          1.57290        9.20950       -6.97790
H         -0.39040       13.23470       -8.95900
H         -0.19570       13.80430       -7.29090
H          1.75370       14.52150       -8.67550
H          2.26770       13.37670       -7.42850
H          2.08650       12.84210       -9.10280
H          1.09590        9.73630      -11.84580
H          6.39670        5.21820      -13.20230
H          7.55970        3.41070      -14.39810
H          4.99010       -0.48260      -16.22460
H          5.33350       -0.37580      -14.47870
H          7.50710       -1.54880      -14.83960
H          6.16440       -2.53980      -15.42590
H          7.17490       -1.64830      -16.57050
H          2.65390        3.31860      -14.05940
H          5.32760        6.83740      -14.75910
H          5.32690        9.43840      -14.60950
