122

C          3.72330       -0.06880       11.53590
C          4.76680       -0.62650       10.83550
C          4.46810       -0.76590        9.43550
N          5.35960       -1.28610        8.57020
C          6.49750       -1.65360        9.08240
C          6.81010       -1.52500       10.47310
C          8.14150       -1.97210       10.97730
N          5.96500       -1.02220       11.33080
C          3.19740       -0.30960        9.10010
S          2.39540        0.28390       10.51390
C          2.62430       -0.31430        7.80530
C          1.39280        0.14160        7.42150
C          1.14630       -0.00660        6.03800
C         -0.01800        0.33190        5.32430
C         -1.14950        1.01280        5.96350
C         -0.95970        2.16700        6.72230
C         -2.03680        2.83970        7.25850
C         -3.33990        2.38270        7.07530
S         -4.65120        3.31840        7.80890
C         -5.93890        3.32990        6.50540
C         -5.41840        3.88750        5.19580
C         -3.51060        1.20470        6.35520
F         -4.74090        0.67210        6.18280
C         -2.44450        0.53620        5.78990
C         -0.04050        0.02000        3.97550
C          1.04960       -0.59930        3.30820
C          2.21710       -0.93370        4.02130
C          3.34880       -1.58970        3.35660
C          4.64870       -1.10680        3.49860
C          5.69900       -1.71540        2.84640
C          5.50420       -2.83750        2.04280
S          6.93860       -3.55270        1.29350
C          6.36730       -4.08850       -0.36270
C          5.78500       -2.94310       -1.16630
C          4.20800       -3.33290        1.94290
C          3.14300       -2.71850        2.56890
F          3.94330       -4.44630        1.22060
C          2.24030       -0.61780        5.37030
S          3.55340       -0.96320        6.47180
C          0.79990       -0.74680        1.92720
C         -0.42730       -0.27370        1.53910
S         -1.34520        0.39280        2.87190
C         -0.99080       -0.27030        0.24880
C         -2.22340        0.29100       -0.09300
C         -2.53640        0.16240       -1.47880
N         -3.67970        0.65270       -1.98320
C         -4.47160        1.24090       -1.12470
C         -4.17400        1.37030        0.26070
C         -5.12550        2.04860        1.18820
N         -3.05870        0.90020        0.76510
C         -1.53960       -0.51630       -2.19640
S         -0.23190       -0.97740       -1.14880
C         -1.51310       -0.82670       -3.55360
C         -0.49310       -1.56020       -4.18070
C         -0.70950       -1.73140       -5.57600
N          0.16230       -2.40860       -6.33820
C          1.20460       -2.89280       -5.71150
C          1.43010       -2.72910       -4.31880
C          2.64070       -3.30700       -3.66640
N          0.58390       -2.06400       -3.56340
C         -1.89490       -1.11860       -6.01550
S         -2.73540       -0.35310       -4.69750
C         -2.37680       -1.07620       -7.32030
C         -3.54280       -0.41880       -7.73790
C         -3.78380       -0.51780       -9.14140
N         -4.91320       -0.01080       -9.66640
C         -5.70200        0.61740       -8.83870
C         -5.42930        0.78170       -7.45240
C         -6.35390        1.54450       -6.56540
N         -4.36240        0.24200       -6.91040
C         -2.77770       -1.23880       -9.80680
S         -1.58220       -1.81230       -8.67080
C         -2.65640       -1.50430      -11.18280
C         -3.24690       -0.83450      -12.26210
C         -2.89040       -1.41580      -13.53130
N         -3.38760       -0.91420      -14.68820
C         -4.16600        0.11990      -14.57050
C         -4.46000        0.74770      -13.32270
C         -5.28760        1.98810      -13.27250
N         -4.00310        0.27120      -12.19390
C         -2.03010       -2.48300      -13.40840
S         -1.65210       -2.79580      -11.77240
H          3.66960        0.14750       12.58300
H          7.22270       -2.07240        8.39790
H          8.28750       -3.02970       10.76260
H          8.93550       -1.41570       10.48120
H          8.20000       -1.80810       12.04930
H          0.68370        0.55130        8.11880
H          0.03690        2.55890        6.85600
H         -1.88900        3.74510        7.82650
H         -6.33470        2.32320        6.39080
H         -6.71400        3.97040        6.92590
H         -6.23060        3.94500        4.47360
H         -5.00780        4.88450        5.34180
H         -4.63710        3.25010        4.78530
H         -2.63590       -0.36980        5.23710
H          4.83040       -0.23140        4.10170
H          6.70090       -1.32790        2.94530
H          5.66000       -4.90660       -0.24710
H          7.27780       -4.46910       -0.82570
H          5.54040       -3.28850       -2.16890
H          6.49990       -2.12650       -1.24060
H          4.87640       -2.56500       -0.70190
H          2.16050       -3.15230        2.46540
H          1.49980       -1.16050        1.22380
H         -5.39590        1.63860       -1.52180
H         -4.74140        1.99120        2.20260
H         -6.10350        1.57270        1.14080
H         -5.24450        3.09390        0.90580
H          1.91210       -3.44230       -6.31750
H          2.61870       -3.08630       -2.60330
H          3.54140       -2.88270       -4.10780
H          2.66920       -4.38560       -3.81230
H         -6.61700        1.01210       -9.26100
H         -6.43100        2.57710       -6.90320
H         -7.35050        1.10660       -6.59340
H         -5.97510        1.52300       -5.54750
H         -4.57600        0.51880      -15.48960
H         -5.40660        2.29540      -12.23790
H         -4.80790        2.78670      -13.83690
H         -6.26630        1.80510      -13.71360
H         -1.62360       -3.09290      -14.18890
