230

C         -3.73090       -9.53540       16.11960
C         -2.90460      -10.16060       15.25660
C         -3.00890       -9.65990       13.92480
C         -2.27690      -10.04820       12.79230
C         -1.30120      -11.14480       12.83170
C         -1.64410      -12.40060       13.32900
C         -0.73680      -13.43830       13.29870
C          0.54860      -13.26230       12.79080
S          1.63400      -14.65950       12.80680
C          2.50730      -14.54490       11.20060
C          1.54650      -14.48580       10.03020
C          0.89110      -11.99120       12.34050
F          2.13680      -11.73060       11.88550
C         -0.01570      -10.95160       12.33750
C         -2.52420       -9.35520       11.61660
C         -3.47250       -8.30490       11.53420
C         -4.19910       -7.90530       12.66910
C         -5.15090       -6.79180       12.58150
C         -6.46640       -6.91670       13.02330
C         -7.36370       -5.88420       12.85190
C         -6.98660       -4.68090       12.25700
S         -8.22520       -3.43040       12.09520
C         -7.87210       -2.63160       10.48350
C         -7.87990       -3.61880        9.33470
C         -5.65290       -4.54710       11.88220
C         -4.75160       -5.58210       12.01980
F         -5.18890       -3.38790       11.36390
C         -3.95540       -8.60880       13.83820
S         -4.69220       -8.29550       15.38880
C         -3.58110       -7.80010       10.21940
C         -2.74430       -8.41390        9.32870
S         -1.78000       -9.67280       10.06420
C         -2.58830       -8.08440        7.96320
C         -1.73110       -8.66460        7.03000
C         -1.77510       -8.02610        5.74700
N         -0.98830       -8.45750        4.73880
C         -0.21240       -9.46820        5.01290
C         -0.16330      -10.10860        6.28690
C          0.75300      -11.26050        6.52450
N         -0.91650       -9.70560        7.27810
C         -2.67020       -6.95460        5.70910
S         -3.45020       -6.76820        7.24460
C         -2.91620       -6.03190        4.66550
C         -2.35790       -5.99770        3.41610
C         -2.73810       -4.85960        2.66770
C         -2.29400       -4.46590        1.39320
C         -1.30470       -5.22530        0.61900
C         -0.09120       -5.61990        1.17920
C          0.88170       -6.20870        0.39800
C          0.67710       -6.43310       -0.95950
S          1.99430       -7.12150       -1.92580
C          2.08970       -5.91200       -3.30120
C          2.33740       -4.50470       -2.79650
C         -0.56430       -6.09840       -1.49040
F         -0.84550       -6.35100       -2.78620
C         -1.53880       -5.49040       -0.72740
C         -2.77240       -3.25820        0.91190
C         -3.66310       -2.41710        1.62980
C         -4.12970       -2.82270        2.89380
C         -5.01790       -1.99000        3.71340
C         -4.74390       -0.64480        3.94560
C         -5.55070        0.11870        4.76750
C         -6.66570       -0.43430        5.38730
S         -7.75280        0.40730        6.49010
C         -7.41120        2.17410        6.18390
C         -7.88730        2.62020        4.81450
C         -6.92620       -1.78420        5.14760
C         -6.13280       -2.55580        4.33090
F         -7.99360       -2.35760        5.74110
C         -3.65490       -4.03410        3.37190
S         -3.99780       -4.68170        4.95290
C         -3.91890       -1.20710        0.94500
C         -3.21530       -1.08500       -0.22330
S         -2.26120       -2.51260       -0.57960
C         -3.11150        0.05910       -1.04870
C         -3.61480        1.34060       -0.81200
C         -3.15460        2.30010       -1.77160
N         -3.50320        3.59780       -1.69110
C         -4.27370        3.92060       -0.69200
C         -4.73390        2.97890        0.27430
C         -5.60890        3.41800        1.40090
N         -4.40950        1.71160        0.21160
C         -2.30900        1.75570       -2.73780
S         -2.11360        0.05760       -2.46690
C         -1.57490        2.45210       -3.72430
C         -0.71880        1.91730       -4.64920
C         -0.00840        2.88960       -5.38700
C          0.95440        2.67930       -6.39120
C          1.35410        1.32810       -6.80050
C          1.38270        0.96600       -8.14700
C          1.72900       -0.31250       -8.52370
C          2.07730       -1.28220       -7.58210
S          2.51800       -2.87110       -8.20630
C          2.10670       -4.03700       -6.84570
C          1.90620       -5.41970       -7.43400
C          2.08800       -0.89290       -6.24610
F          2.46910       -1.75340       -5.27100
C          1.72250        0.37830       -5.85290
C          1.51980        3.81260       -6.95370
C          1.17320        5.12980       -6.55950
C          0.18040        5.33880       -5.58520
C         -0.23910        6.69260       -5.20580
C         -0.58040        7.63150       -6.17970
C         -1.00060        8.89360       -5.82280
C         -1.08680        9.28090       -4.48500
S         -1.60130       10.93730       -4.16480
C         -2.45220       10.83840       -2.53880
C         -3.40330       12.01260       -2.41590
C         -0.71810        8.34230       -3.52580
C         -0.31680        7.06730       -3.86910
F         -0.72620        8.65340       -2.20920
C         -0.37520        4.20810       -5.00750
S         -1.59660        4.20050       -3.75570
C          1.98790        6.10100       -7.19180
C          2.91050        5.56900       -8.04620
S          2.80380        3.82320       -8.13320
C          3.91420        6.26670       -8.78640
C          4.25460        7.58390       -8.68200
C          5.33930        7.95730       -9.51560
C          5.93010        9.22430       -9.64930
C          5.52330       10.35530       -8.80780
C          5.44940       10.22010       -7.42160
C          5.11130       11.29480       -6.62820
C          4.82090       12.54080       -7.18050
S          4.36650       13.83930       -6.06850
C          5.23740       15.30570       -6.73550
C          6.73290       15.08110       -6.83340
C          4.86820       12.65300       -8.56670
F          4.55410       13.81640       -9.17720
C          5.22910       11.59190       -9.37200
C          6.94640        9.34000      -10.58720
C          7.40560        8.25470      -11.37130
C          6.82200        6.98710      -11.23160
C          7.26100        5.84490      -12.04310
C          7.33290        5.94180      -13.42920
C          7.73550        4.87030      -14.20370
C          8.08930        3.66180      -13.61380
S          8.63020        2.22430      -14.46940
C          8.61860        2.74140      -16.22680
C          9.09040        1.57610      -17.07610
C          8.00880        3.57840      -12.22150
C          7.60100        4.63500      -11.44070
F          8.35050        2.42240      -11.61910
C          5.80550        6.86940      -10.29470
S          4.91130        5.41400       -9.94640
C          8.50760        8.63250      -12.19610
C          8.85330        9.92710      -12.05140
S          7.87370       10.78360      -10.91030
H         -3.84740       -9.71890       17.16990
H         -2.22340      -10.94160       15.54160
H         -2.64130      -12.57150       13.70520
H         -1.01140      -14.41590       13.66330
H          3.10120      -15.45860       11.17620
H          3.17670      -13.68760       11.22200
H          0.86800      -15.33610       10.04940
H          2.10620      -14.50490        9.09710
H          0.95510      -13.57230       10.05720
H          0.30130       -9.98810       11.97090
H         -6.79490       -7.84270       13.46900
H         -8.38870       -5.99480       13.16970
H         -8.68560       -1.91280       10.38530
H         -6.93010       -2.09240       10.55320
H         -8.80670       -4.18840        9.32650
H         -7.79610       -3.08130        8.39290
H         -7.04590       -4.31420        9.41020
H         -3.72910       -5.42320       11.71310
H         -4.26170       -7.02100        9.92630
H          0.41890       -9.81700        4.20630
H          1.78000      -10.97790        6.29930
H          0.67990      -11.57270        7.56230
H          0.48340      -12.09340        5.87650
H         -1.69050       -6.76520        3.07080
H          0.10780       -5.41860        2.22030
H          1.83320       -6.48450        0.82530
H          2.92590       -6.27170       -3.90020
H          1.17570       -5.97890       -3.88790
H          1.50200       -4.15740       -2.19050
H          2.45570       -3.82330       -3.63560
H          3.24040       -4.47150       -2.19070
H         -2.48180       -5.24340       -1.18940
H         -3.86740       -0.19440        3.50580
H         -5.28840        1.15050        4.93750
H         -6.34840        2.35690        6.33690
H         -7.96630        2.68170        6.97260
H         -7.67360        3.67800        4.67300
H         -8.95960        2.46560        4.72170
H         -7.39200        2.05580        4.02730
H         -6.39910       -3.58820        4.16960
H         -4.57560       -0.43130        1.29070
H         -4.55940        4.96120       -0.61990
H         -5.83200        2.56820        2.03970
H         -5.11150        4.19190        1.98350
H         -6.53890        3.83270        1.01490
H         -0.60960        0.85630       -4.78480
H          1.10170        1.68540       -8.90030
H          1.73290       -0.59170       -9.56570
H          1.19540       -3.67650       -6.37140
H          2.92740       -4.03110       -6.12990
H          2.81450       -5.76090       -7.92520
H          1.10160       -5.41010       -8.16580
H          1.65160       -6.12200       -6.64320
H          1.76680        0.62620       -4.80360
H         -0.54610        7.35440       -7.22240
H         -1.27690        9.61200       -6.57890
H         -2.98900        9.89120       -2.51340
H         -1.69890       10.85850       -1.75280
H         -2.85820       12.95200       -2.47440
H         -3.91990       11.96800       -1.45950
H         -4.14120       11.99240       -3.21480
H         -0.03660        6.38640       -3.08130
H          1.90590        7.15400       -6.99490
H          3.74640        8.27420       -8.03430
H          5.69610        9.27390       -6.96460
H          5.07110       11.19090       -5.55510
H          4.80080       15.57190       -7.69550
H          5.00290       16.08480       -6.01010
H          6.96300       14.30460       -7.56080
H          7.13810       14.78180       -5.86890
H          7.22120       16.00120       -7.14790
H          5.24690       11.73630      -10.44090
H          7.04680        6.86380      -13.91310
H          7.76910        4.98530      -15.27460
H          9.28840        3.59520      -16.33170
H          7.59930        3.02590      -16.48860
H          8.43290        0.71990      -16.94550
H          9.09120        1.85980      -18.12640
H         10.09820        1.28220      -16.79240
H          7.57100        4.51470      -10.36950
H          9.01910        7.94680      -12.84670
H          9.64030       10.45960      -12.54880
