
  xtb     03052200143D
 energy: -219.000596869060 gnorm: 0.000575585021 xtb: 6.4.1 (unknown)
122136  0     0  0            999 V2000
    0.8083    6.4844   10.6884 C   0  0  0  0  0  0  0  0  0  0  0  0
    1.5537    6.4922    9.5302 C   0  0  0  0  0  0  0  0  0  0  0  0
    1.0380    5.5774    8.5500 C   0  0  0  0  0  0  0  0  0  0  0  0
    1.6129    5.4234    7.3457 N   0  0  0  0  0  0  0  0  0  0  0  0
    2.6656    6.1625    7.1256 C   0  0  0  0  0  0  0  0  0  0  0  0
    3.1905    7.0811    8.0843 C   0  0  0  0  0  0  0  0  0  0  0  0
    4.3964    7.8956    7.7505 C   0  0  0  0  0  0  0  0  0  0  0  0
    2.6495    7.2424    9.2630 N   0  0  0  0  0  0  0  0  0  0  0  0
   -0.0972    4.8947    8.9930 C   0  0  0  0  0  0  0  0  0  0  0  0
   -0.5067    5.3859   10.5999 S   0  0  0  0  0  0  0  0  0  0  0  0
   -0.8340    3.9473    8.2722 C   0  0  0  0  0  0  0  0  0  0  0  0
   -1.9841    3.2767    8.7005 C   0  0  0  0  0  0  0  0  0  0  0  0
   -2.5165    2.3781    7.7242 C   0  0  0  0  0  0  0  0  0  0  0  0
   -3.5683    1.5993    8.0267 N   0  0  0  0  0  0  0  0  0  0  0  0
   -4.0916    1.7687    9.2093 C   0  0  0  0  0  0  0  0  0  0  0  0
   -3.6092    2.7107   10.1601 C   0  0  0  0  0  0  0  0  0  0  0  0
   -4.2768    2.8780   11.4834 C   0  0  0  0  0  0  0  0  0  0  0  0
   -2.5492    3.4404    9.9077 N   0  0  0  0  0  0  0  0  0  0  0  0
   -1.7746    2.3843    6.5298 C   0  0  0  0  0  0  0  0  0  0  0  0
   -0.4125    3.4693    6.6648 S   0  0  0  0  0  0  0  0  0  0  0  0
   -2.0105    1.6741    5.3435 C   0  0  0  0  0  0  0  0  0  0  0  0
   -3.1899    1.0542    4.8973 C   0  0  0  0  0  0  0  0  0  0  0  0
   -3.0326    0.4358    3.6179 C   0  0  0  0  0  0  0  0  0  0  0  0
   -4.0436   -0.2221    3.0221 N   0  0  0  0  0  0  0  0  0  0  0  0
   -5.1758   -0.2367    3.6676 C   0  0  0  0  0  0  0  0  0  0  0  0
   -5.3631    0.4314    4.9114 C   0  0  0  0  0  0  0  0  0  0  0  0
   -6.7006    0.4436    5.5725 C   0  0  0  0  0  0  0  0  0  0  0  0
   -4.3835    1.0627    5.5090 N   0  0  0  0  0  0  0  0  0  0  0  0
   -1.7597    0.5899    3.0661 C   0  0  0  0  0  0  0  0  0  0  0  0
   -0.7541    1.4974    4.1470 S   0  0  0  0  0  0  0  0  0  0  0  0
   -1.3436    0.0995    1.8121 C   0  0  0  0  0  0  0  0  0  0  0  0
   -0.1129    0.2118    1.2176 C   0  0  0  0  0  0  0  0  0  0  0  0
   -0.0527   -0.3835   -0.0600 C   0  0  0  0  0  0  0  0  0  0  0  0
    1.0523   -0.4532   -0.9300 C   0  0  0  0  0  0  0  0  0  0  0  0
    2.3703    0.0630   -0.5414 C   0  0  0  0  0  0  0  0  0  0  0  0
    2.9595   -0.3208    0.6600 C   0  0  0  0  0  0  0  0  0  0  0  0
    4.2114    0.1376    1.0213 C   0  0  0  0  0  0  0  0  0  0  0  0
    4.9215    0.9973    0.1910 C   0  0  0  0  0  0  0  0  0  0  0  0
    6.5130    1.6688    0.5423 S   0  0  0  0  0  0  0  0  0  0  0  0
    7.1861    0.5582    1.8269 C   0  0  0  0  0  0  0  0  0  0  0  0
    7.4741   -0.8310    1.2909 C   0  0  0  0  0  0  0  0  0  0  0  0
    4.3132    1.3843   -1.0042 C   0  0  0  0  0  0  0  0  0  0  0  0
    4.9638    2.2331   -1.8241 F   0  0  0  0  0  0  0  0  0  0  0  0
    3.0681    0.9315   -1.3778 C   0  0  0  0  0  0  0  0  0  0  0  0
    0.8389   -1.0545   -2.1573 C   0  0  0  0  0  0  0  0  0  0  0  0
   -0.4068   -1.6165   -2.5462 C   0  0  0  0  0  0  0  0  0  0  0  0
   -1.5071   -1.5592   -1.6685 C   0  0  0  0  0  0  0  0  0  0  0  0
   -2.8067   -2.1408   -2.0247 C   0  0  0  0  0  0  0  0  0  0  0  0
   -2.9075   -3.4338   -2.5331 C   0  0  0  0  0  0  0  0  0  0  0  0
   -4.1346   -3.9852   -2.8467 C   0  0  0  0  0  0  0  0  0  0  0  0
   -5.3088   -3.2620   -2.6700 C   0  0  0  0  0  0  0  0  0  0  0  0
   -6.9352   -3.8703   -2.9877 S   0  0  0  0  0  0  0  0  0  0  0  0
   -6.6680   -5.1770   -4.2353 C   0  0  0  0  0  0  0  0  0  0  0  0
   -6.1924   -4.6042   -5.5562 C   0  0  0  0  0  0  0  0  0  0  0  0
   -5.1942   -1.9706   -2.1553 C   0  0  0  0  0  0  0  0  0  0  0  0
   -3.9783   -1.4095   -1.8371 C   0  0  0  0  0  0  0  0  0  0  0  0
   -6.3106   -1.2383   -1.9691 F   0  0  0  0  0  0  0  0  0  0  0  0
   -1.3039   -0.9324   -0.4487 C   0  0  0  0  0  0  0  0  0  0  0  0
   -2.5024   -0.7498    0.8125 S   0  0  0  0  0  0  0  0  0  0  0  0
   -0.3528   -2.1713   -3.8436 C   0  0  0  0  0  0  0  0  0  0  0  0
    0.8830   -2.0807   -4.4285 C   0  0  0  0  0  0  0  0  0  0  0  0
    2.0484   -1.2706   -3.3974 S   0  0  0  0  0  0  0  0  0  0  0  0
    1.2524   -2.5657   -5.7045 C   0  0  0  0  0  0  0  0  0  0  0  0
    0.4855   -3.3488   -6.5721 C   0  0  0  0  0  0  0  0  0  0  0  0
    1.1661   -3.6728   -7.7926 C   0  0  0  0  0  0  0  0  0  0  0  0
    0.6059   -4.4986   -8.6941 N   0  0  0  0  0  0  0  0  0  0  0  0
   -0.5939   -4.9239   -8.4221 C   0  0  0  0  0  0  0  0  0  0  0  0
   -1.3008   -4.5686   -7.2388 C   0  0  0  0  0  0  0  0  0  0  0  0
   -2.6797   -5.0818   -6.9867 C   0  0  0  0  0  0  0  0  0  0  0  0
   -0.7568   -3.8078   -6.3227 N   0  0  0  0  0  0  0  0  0  0  0  0
    2.4482   -3.1140   -7.8666 C   0  0  0  0  0  0  0  0  0  0  0  0
    2.8004   -2.2410   -6.4098 S   0  0  0  0  0  0  0  0  0  0  0  0
    3.3809   -3.1912   -8.9227 C   0  0  0  0  0  0  0  0  0  0  0  0
    3.1496   -3.4746  -10.2720 C   0  0  0  0  0  0  0  0  0  0  0  0
    4.3660   -3.4968  -11.0446 C   0  0  0  0  0  0  0  0  0  0  0  0
    4.3416   -3.7850  -12.3692 N   0  0  0  0  0  0  0  0  0  0  0  0
    3.1679   -4.0056  -12.8804 C   0  0  0  0  0  0  0  0  0  0  0  0
    1.9520   -3.9069  -12.1370 C   0  0  0  0  0  0  0  0  0  0  0  0
    0.6337   -4.0831  -12.8135 C   0  0  0  0  0  0  0  0  0  0  0  0
    1.9527   -3.6439  -10.8573 N   0  0  0  0  0  0  0  0  0  0  0  0
    5.4815   -3.2062  -10.2938 C   0  0  0  0  0  0  0  0  0  0  0  0
    5.0763   -2.9176   -8.6609 S   0  0  0  0  0  0  0  0  0  0  0  0
    0.9686    7.0666   11.5724 H   0  0  0  0  0  0  0  0  0  0  0  0
    3.1405    6.0503    6.1604 H   0  0  0  0  0  0  0  0  0  0  0  0
    5.2377    7.2440    7.5192 H   0  0  0  0  0  0  0  0  0  0  0  0
    4.1999    8.5142    6.8760 H   0  0  0  0  0  0  0  0  0  0  0  0
    4.6514    8.5312    8.5933 H   0  0  0  0  0  0  0  0  0  0  0  0
   -4.9296    1.1297    9.4554 H   0  0  0  0  0  0  0  0  0  0  0  0
   -4.2936    1.9303   12.0193 H   0  0  0  0  0  0  0  0  0  0  0  0
   -5.3067    3.2039   11.3447 H   0  0  0  0  0  0  0  0  0  0  0  0
   -3.7396    3.6175   12.0701 H   0  0  0  0  0  0  0  0  0  0  0  0
   -5.9909   -0.7713    3.1988 H   0  0  0  0  0  0  0  0  0  0  0  0
   -7.0299   -0.5747    5.7731 H   0  0  0  0  0  0  0  0  0  0  0  0
   -7.4382    0.9141    4.9239 H   0  0  0  0  0  0  0  0  0  0  0  0
   -6.6315    0.9944    6.5056 H   0  0  0  0  0  0  0  0  0  0  0  0
    0.7090    0.7247    1.6848 H   0  0  0  0  0  0  0  0  0  0  0  0
    2.4394   -1.0058    1.3125 H   0  0  0  0  0  0  0  0  0  0  0  0
    4.6291   -0.1794    1.9632 H   0  0  0  0  0  0  0  0  0  0  0  0
    8.1068    1.0550    2.1326 H   0  0  0  0  0  0  0  0  0  0  0  0
    6.5027    0.5451    2.6751 H   0  0  0  0  0  0  0  0  0  0  0  0
    8.1730   -0.7742    0.4599 H   0  0  0  0  0  0  0  0  0  0  0  0
    7.9124   -1.4472    2.0738 H   0  0  0  0  0  0  0  0  0  0  0  0
    6.5630   -1.3109    0.9395 H   0  0  0  0  0  0  0  0  0  0  0  0
    2.6454    1.2707   -2.3100 H   0  0  0  0  0  0  0  0  0  0  0  0
   -2.0161   -4.0296   -2.6567 H   0  0  0  0  0  0  0  0  0  0  0  0
   -4.1719   -4.9972   -3.2181 H   0  0  0  0  0  0  0  0  0  0  0  0
   -7.6499   -5.6382   -4.3395 H   0  0  0  0  0  0  0  0  0  0  0  0
   -5.9792   -5.9176   -3.8314 H   0  0  0  0  0  0  0  0  0  0  0  0
   -6.0383   -5.4050   -6.2768 H   0  0  0  0  0  0  0  0  0  0  0  0
   -5.2566   -4.0645   -5.4271 H   0  0  0  0  0  0  0  0  0  0  0  0
   -6.9327   -3.9138   -5.9534 H   0  0  0  0  0  0  0  0  0  0  0  0
   -3.9530   -0.3988   -1.4635 H   0  0  0  0  0  0  0  0  0  0  0  0
   -1.1846   -2.6155   -4.3567 H   0  0  0  0  0  0  0  0  0  0  0  0
   -1.0386   -5.5991   -9.1415 H   0  0  0  0  0  0  0  0  0  0  0  0
   -2.9842   -4.8173   -5.9782 H   0  0  0  0  0  0  0  0  0  0  0  0
   -2.7101   -6.1632   -7.1075 H   0  0  0  0  0  0  0  0  0  0  0  0
   -3.3772   -4.6422   -7.6987 H   0  0  0  0  0  0  0  0  0  0  0  0
    3.1416   -4.2492  -13.9348 H   0  0  0  0  0  0  0  0  0  0  0  0
   -0.1603   -3.9826  -12.0795 H   0  0  0  0  0  0  0  0  0  0  0  0
    0.5784   -5.0663  -13.2783 H   0  0  0  0  0  0  0  0  0  0  0  0
    0.5055   -3.3339  -13.5937 H   0  0  0  0  0  0  0  0  0  0  0  0
    6.5012   -3.1635  -10.6176 H   0  0  0  0  0  0  0  0  0  0  0  0
  1  2  2  0  0  0  0
  2  3  1  0  0  0  0
  3  4  1  0  0  0  0
  4  5  2  0  0  0  0
  5  6  1  0  0  0  0
  6  7  1  0  0  0  0
  6  8  2  0  0  0  0
  3  9  2  0  0  0  0
  9 10  1  0  0  0  0
  9 11  1  0  0  0  0
 11 12  2  0  0  0  0
 12 13  1  0  0  0  0
 13 14  1  0  0  0  0
 14 15  2  0  0  0  0
 15 16  1  0  0  0  0
 16 17  1  0  0  0  0
 16 18  2  0  0  0  0
 13 19  2  0  0  0  0
 19 20  1  0  0  0  0
 19 21  1  0  0  0  0
 21 22  2  0  0  0  0
 22 23  1  0  0  0  0
 23 24  1  0  0  0  0
 24 25  2  0  0  0  0
 25 26  1  0  0  0  0
 26 27  1  0  0  0  0
 26 28  2  0  0  0  0
 23 29  2  0  0  0  0
 29 30  1  0  0  0  0
 29 31  1  0  0  0  0
 31 32  2  0  0  0  0
 32 33  1  0  0  0  0
 33 34  2  0  0  0  0
 34 35  1  0  0  0  0
 35 36  2  0  0  0  0
 36 37  1  0  0  0  0
 37 38  2  0  0  0  0
 38 39  1  0  0  0  0
 39 40  1  0  0  0  0
 40 41  1  0  0  0  0
 38 42  1  0  0  0  0
 42 43  1  0  0  0  0
 42 44  2  0  0  0  0
 34 45  1  0  0  0  0
 45 46  2  0  0  0  0
 46 47  1  0  0  0  0
 47 48  1  0  0  0  0
 48 49  2  0  0  0  0
 49 50  1  0  0  0  0
 50 51  2  0  0  0  0
 51 52  1  0  0  0  0
 52 53  1  0  0  0  0
 53 54  1  0  0  0  0
 51 55  1  0  0  0  0
 55 56  2  0  0  0  0
 55 57  1  0  0  0  0
 47 58  2  0  0  0  0
 58 59  1  0  0  0  0
 46 60  1  0  0  0  0
 60 61  2  0  0  0  0
 61 62  1  0  0  0  0
 61 63  1  0  0  0  0
 63 64  2  0  0  0  0
 64 65  1  0  0  0  0
 65 66  1  0  0  0  0
 66 67  2  0  0  0  0
 67 68  1  0  0  0  0
 68 69  1  0  0  0  0
 68 70  2  0  0  0  0
 65 71  2  0  0  0  0
 71 72  1  0  0  0  0
 71 73  1  0  0  0  0
 73 74  2  0  0  0  0
 74 75  1  0  0  0  0
 75 76  1  0  0  0  0
 76 77  2  0  0  0  0
 77 78  1  0  0  0  0
 78 79  1  0  0  0  0
 78 80  2  0  0  0  0
 75 81  2  0  0  0  0
 81 82  1  0  0  0  0
 10  1  1  0  0  0  0
 20 11  1  0  0  0  0
 30 21  1  0  0  0  0
 59 31  1  0  0  0  0
 72 63  1  0  0  0  0
 82 73  1  0  0  0  0
  8  2  1  0  0  0  0
 18 12  1  0  0  0  0
 28 22  1  0  0  0  0
 58 33  1  0  0  0  0
 70 64  1  0  0  0  0
 80 74  1  0  0  0  0
 44 35  1  0  0  0  0
 62 45  1  0  0  0  0
 56 48  1  0  0  0  0
  1 83  1  0  0  0  0
  5 84  1  0  0  0  0
  7 85  1  0  0  0  0
  7 86  1  0  0  0  0
  7 87  1  0  0  0  0
 15 88  1  0  0  0  0
 17 89  1  0  0  0  0
 17 90  1  0  0  0  0
 17 91  1  0  0  0  0
 25 92  1  0  0  0  0
 27 93  1  0  0  0  0
 27 94  1  0  0  0  0
 27 95  1  0  0  0  0
 32 96  1  0  0  0  0
 36 97  1  0  0  0  0
 37 98  1  0  0  0  0
 40 99  1  0  0  0  0
 40100  1  0  0  0  0
 41101  1  0  0  0  0
 41102  1  0  0  0  0
 41103  1  0  0  0  0
 44104  1  0  0  0  0
 49105  1  0  0  0  0
 50106  1  0  0  0  0
 53107  1  0  0  0  0
 53108  1  0  0  0  0
 54109  1  0  0  0  0
 54110  1  0  0  0  0
 54111  1  0  0  0  0
 56112  1  0  0  0  0
 60113  1  0  0  0  0
 67114  1  0  0  0  0
 69115  1  0  0  0  0
 69116  1  0  0  0  0
 69117  1  0  0  0  0
 77118  1  0  0  0  0
 79119  1  0  0  0  0
 79120  1  0  0  0  0
 79121  1  0  0  0  0
 81122  1  0  0  0  0
M  END
