194

C         11.04280       -6.06650       10.44010
C         10.74220       -4.85390        9.93390
C          9.73780       -4.90930        8.92250
C          9.21110       -3.85670        8.16300
C          9.56800       -2.44880        8.37860
C          9.93970       -1.64260        7.30590
C         10.16880       -0.29200        7.47360
C         10.02150        0.30540        8.72020
S         10.23590        2.02750        9.03310
C          9.89780        2.79790        7.40960
C          8.46560        2.58660        6.95820
C          9.69580       -0.52240        9.79530
F          9.57180        0.01440       11.02580
C          9.47080       -1.87320        9.64310
C          8.28040       -4.19680        7.19280
C          7.84060       -5.52130        6.95390
C          8.36600       -6.57470        7.71920
C          7.94840       -7.96520        7.50400
C          7.52110       -8.75770        8.56800
C          7.14600      -10.06730        8.36070
C          7.17840      -10.64020        7.09070
S          6.62750      -12.31490        6.94560
C          7.78300      -13.06450        5.73920
C          9.22250      -12.97380        6.20380
C          7.58630       -9.83080        6.03460
C          7.97630       -8.52110        6.22930
F          7.61700      -10.30260        4.76920
C          9.30100       -6.23580        8.68900
S         10.13450       -7.35950        9.73300
C          6.83310       -5.57030        5.95220
C          6.51560       -4.34900        5.44050
S          7.45050       -3.05590        6.17140
C          5.55790       -3.99840        4.44430
C          5.25390       -2.73050        4.04600
C          4.24300       -2.66790        3.05900
C          3.68810       -1.51510        2.47660
C          4.13130       -0.18320        2.90850
C          4.14330        0.15440        4.25940
C          4.61880        1.37810        4.68700
C          5.09620        2.31240        3.77520
S          5.79540        3.87400        4.20370
C          5.13070        4.20940        5.87220
C          3.63310        4.44510        5.85640
C          5.05960        1.96920        2.42300
F          5.51800        2.84930        1.51170
C          4.58510        0.75280        1.98320
C          2.72630       -1.71510        1.50250
C          2.28980       -3.00700        1.10690
C          2.82720       -4.15940        1.70990
C          2.34860       -5.49360        1.33020
C          0.98550       -5.77640        1.29670
C          0.52170       -7.01980        0.91500
C          1.40650       -8.03030        0.55590
S          0.94690       -9.64160        0.00950
C         -0.78690       -9.81680        0.55710
C         -0.90710       -9.90340        2.06660
C          2.77030       -7.73430        0.59870
C          3.24600       -6.49990        0.98030
F          3.65600       -8.68570        0.24510
C          3.80530       -3.95850        2.67040
S          4.61860       -5.20480        3.58820
C          1.31040       -2.94490        0.09170
C          0.95730       -1.66820       -0.25260
S          1.86240       -0.46270        0.64740
C         -0.03750       -1.31150       -1.19420
C         -0.81030       -2.18630       -1.96550
C         -1.76530       -1.50910       -2.79150
N         -2.59870       -2.20190       -3.59370
C         -2.47800       -3.49950       -3.57110
C         -1.53600       -4.18340       -2.75140
C         -1.45200       -5.67340       -2.76310
N         -0.72070       -3.53050       -1.96240
C         -1.72710       -0.11800       -2.64160
S         -0.50290        0.32620       -1.50290
C         -2.57290        0.83260       -3.26000
C         -3.54480        0.57300       -4.18970
C         -4.27640        1.71760       -4.57440
C         -5.35700        1.79150       -5.47340
C         -5.90590        0.58690       -6.10600
C         -6.21980       -0.54120       -5.34760
C         -6.76450       -1.65800       -5.94180
C         -7.01100       -1.70420       -7.31370
S         -7.67810       -3.20380       -7.96470
C         -8.73140       -2.64410       -9.36310
C         -9.79590       -3.69140       -9.62380
C         -6.67170       -0.58080       -8.06100
F         -6.84090       -0.56370       -9.40370
C         -6.14360        0.55170       -7.47580
C         -5.89710        3.04640       -5.70340
C         -5.43600        4.21710       -5.04540
C         -4.36980        4.14190       -4.12880
C         -3.90480        5.32680       -3.39800
C         -2.55430        5.66870       -3.35960
C         -2.13390        6.79180       -2.68050
C         -3.03400        7.60770       -1.99730
S         -2.36910        8.99780       -1.12960
C         -3.60970       10.32130       -1.38340
C         -3.85620       10.59740       -2.85290
C         -4.37350        7.23080       -2.00990
C         -4.81250        6.12510       -2.70880
F         -5.30160        7.93900       -1.32720
C         -3.80400        2.89380       -3.93360
S         -2.49290        2.53480       -2.83860
C         -6.16340        5.36130       -5.44100
C         -7.16100        5.08800       -6.33880
S         -7.24450        3.39240       -6.76320
C         -8.08590        5.97650       -6.92770
C         -9.07260        5.62030       -7.84480
C         -9.88990        6.71470       -8.27160
N        -10.82230        6.53030       -9.22520
C        -10.96720        5.31230       -9.66130
C        -10.20240        4.20320       -9.19130
C        -10.44010        2.82750       -9.71440
N         -9.25320        4.37110       -8.30700
C         -9.53840        7.91880       -7.64970
S         -8.18010        7.67240       -6.58990
C        -10.13910        9.18800       -7.78510
C        -11.42820        9.49720       -8.22900
C        -11.67410       10.91670       -8.25480
N        -12.86370       11.40730       -8.68190
C        -13.74890       10.52370       -9.03190
C        -13.53770        9.11350       -8.93730
C        -14.63410        8.15970       -9.27430
N        -12.39570        8.61890       -8.53980
C        -10.59950       11.65380       -7.81380
S         -9.29140       10.64830       -7.37620
H         11.75710       -6.30360       11.20410
H         11.21830       -3.94100       10.24260
H         10.06340       -2.07950        6.32700
H         10.46280        0.29770        6.62040
H         10.62020        2.42800        6.68360
H         10.09700        3.85440        7.58810
H          7.78010        2.96800        7.71210
H          8.25650        1.52950        6.80300
H          8.29050        3.11580        6.02320
H          9.18200       -2.45930       10.50170
H          7.47340       -8.33960        9.56140
H          6.81660      -10.67790        9.18680
H          7.63590      -12.59710        4.76830
H          7.45050      -14.10130        5.68790
H          9.33650      -13.42960        7.18520
H          9.86800      -13.49360        5.49880
H          9.54620      -11.93630        6.26550
H          8.30990       -7.94740        5.37830
H          6.34300       -6.47470        5.63860
H          5.75080       -1.86470        4.44580
H          3.76620       -0.54840        4.98700
H          4.62760        1.59280        5.74330
H          5.41660        3.39370        6.53490
H          5.66350        5.10910        6.17990
H          3.39030        5.27660        5.19900
H          3.28570        4.68140        6.86040
H          3.10290        3.56270        5.50360
H          4.59440        0.53560        0.92690
H          0.27650       -5.01690        1.58850
H         -0.54230       -7.19200        0.89260
H         -1.10690      -10.74730        0.08830
H         -1.37290       -8.99980        0.13760
H         -0.33450      -10.74900        2.43990
H         -1.94990      -10.03700        2.34840
H         -0.53130       -8.99960        2.54170
H          4.31030       -6.32590        0.98070
H          0.87000       -3.79770       -0.38910
H         -3.14530       -4.05350       -4.21790
H         -0.69200       -6.00340       -2.05990
H         -1.19440       -6.02560       -3.76090
H         -2.41390       -6.10660       -2.49290
H         -3.70680       -0.41640       -4.57450
H         -6.06510       -0.52740       -4.28000
H         -7.01740       -2.52350       -5.34930
H         -8.09750       -2.50120      -10.23680
H         -9.17590       -1.69440       -9.06920
H         -9.33810       -4.64500       -9.87700
H        -10.41870       -3.83150       -8.74310
H        -10.42580       -3.37620      -10.45290
H         -5.89280        1.38900       -8.10750
H         -1.83430        5.06580       -3.89050
H         -1.08970        7.06220       -2.66720
H         -3.15580       11.18240       -0.89270
H         -4.52480       10.05640       -0.85860
H         -4.53310       11.44280       -2.95800
H         -4.30740        9.73520       -3.34040
H         -2.92220       10.83110       -3.35970
H         -5.86130        5.87330       -2.67580
H         -5.95950        6.35820       -5.09300
H        -11.70620        5.16840      -10.43860
H         -9.71450        2.14560       -9.28010
H        -10.34860        2.81500      -10.79930
H        -11.44620        2.49830       -9.45770
H        -14.69720       10.90800       -9.38510
H        -14.94940        8.30090      -10.30710
H        -14.27750        7.14300       -9.13940
H        -15.49700        8.33220       -8.63240
H        -10.51600       12.71880       -7.74150
