
  xtb     03042213153D
 energy: -280.222821437695 gnorm: 0.000232198828 xtb: 6.4.1 (unknown)
158175  0     0  0            999 V2000
   -6.9239   -0.5747   12.7694 C   0  0  0  0  0  0  0  0  0  0  0  0
   -5.6612   -0.0357   12.8442 C   0  0  0  0  0  0  0  0  0  0  0  0
   -4.9582   -0.1252   11.5930 C   0  0  0  0  0  0  0  0  0  0  0  0
   -3.7039    0.3451   11.4505 N   0  0  0  0  0  0  0  0  0  0  0  0
   -3.1761    0.8804   12.5117 C   0  0  0  0  0  0  0  0  0  0  0  0
   -3.8611    0.9768   13.7652 C   0  0  0  0  0  0  0  0  0  0  0  0
   -3.1804    1.6068   14.9340 C   0  0  0  0  0  0  0  0  0  0  0  0
   -5.0758    0.5294   13.9285 N   0  0  0  0  0  0  0  0  0  0  0  0
   -5.7041   -0.7334   10.5890 C   0  0  0  0  0  0  0  0  0  0  0  0
   -7.2573   -1.1836   11.2043 S   0  0  0  0  0  0  0  0  0  0  0  0
   -5.2756   -0.9682    9.2596 C   0  0  0  0  0  0  0  0  0  0  0  0
   -5.9655   -1.5593    8.2373 C   0  0  0  0  0  0  0  0  0  0  0  0
   -5.2263   -1.6435    7.0349 C   0  0  0  0  0  0  0  0  0  0  0  0
   -5.6243   -2.2079    5.8085 C   0  0  0  0  0  0  0  0  0  0  0  0
   -6.9343   -2.8523    5.6552 C   0  0  0  0  0  0  0  0  0  0  0  0
   -7.7790   -2.5137    4.5995 C   0  0  0  0  0  0  0  0  0  0  0  0
   -9.0204   -3.1003    4.4769 C   0  0  0  0  0  0  0  0  0  0  0  0
   -9.4629   -4.0554    5.3887 C   0  0  0  0  0  0  0  0  0  0  0  0
  -11.0633   -4.7680    5.1278 S   0  0  0  0  0  0  0  0  0  0  0  0
  -11.7972   -4.7678    6.8060 C   0  0  0  0  0  0  0  0  0  0  0  0
  -11.8512   -3.3743    7.3995 C   0  0  0  0  0  0  0  0  0  0  0  0
   -8.5933   -4.4150    6.4133 C   0  0  0  0  0  0  0  0  0  0  0  0
   -8.9353   -5.3712    7.3057 F   0  0  0  0  0  0  0  0  0  0  0  0
   -7.3576   -3.8190    6.5623 C   0  0  0  0  0  0  0  0  0  0  0  0
   -4.7252   -2.1238    4.7581 C   0  0  0  0  0  0  0  0  0  0  0  0
   -3.4436   -1.5271    4.8895 C   0  0  0  0  0  0  0  0  0  0  0  0
   -3.0280   -1.0029    6.1274 C   0  0  0  0  0  0  0  0  0  0  0  0
   -1.6719   -0.4718    6.3085 C   0  0  0  0  0  0  0  0  0  0  0  0
   -0.5634   -1.2200    5.9124 C   0  0  0  0  0  0  0  0  0  0  0  0
    0.7134   -0.7306    6.0839 C   0  0  0  0  0  0  0  0  0  0  0  0
    0.9383    0.5176    6.6599 C   0  0  0  0  0  0  0  0  0  0  0  0
    2.6211    1.0284    6.8660 S   0  0  0  0  0  0  0  0  0  0  0  0
    2.5977    2.7959    6.3877 C   0  0  0  0  0  0  0  0  0  0  0  0
    2.0877    2.9926    4.9742 C   0  0  0  0  0  0  0  0  0  0  0  0
   -0.1745    1.2392    7.0799 C   0  0  0  0  0  0  0  0  0  0  0  0
   -1.4595    0.7680    6.9015 C   0  0  0  0  0  0  0  0  0  0  0  0
   -0.0308    2.4424    7.6784 F   0  0  0  0  0  0  0  0  0  0  0  0
   -3.9413   -1.0546    7.1681 C   0  0  0  0  0  0  0  0  0  0  0  0
   -3.6675   -0.4643    8.7906 S   0  0  0  0  0  0  0  0  0  0  0  0
   -2.7335   -1.5372    3.6686 C   0  0  0  0  0  0  0  0  0  0  0  0
   -3.4078   -2.1613    2.6528 C   0  0  0  0  0  0  0  0  0  0  0  0
   -4.9736   -2.7658    3.1498 S   0  0  0  0  0  0  0  0  0  0  0  0
   -2.9892   -2.3627    1.3203 C   0  0  0  0  0  0  0  0  0  0  0  0
   -3.6453   -3.1418    0.3685 C   0  0  0  0  0  0  0  0  0  0  0  0
   -2.9739   -3.1999   -0.8938 C   0  0  0  0  0  0  0  0  0  0  0  0
   -3.5291   -3.8570   -1.9284 N   0  0  0  0  0  0  0  0  0  0  0  0
   -4.6559   -4.4641   -1.6858 C   0  0  0  0  0  0  0  0  0  0  0  0
   -5.3034   -4.4587   -0.4150 C   0  0  0  0  0  0  0  0  0  0  0  0
   -6.5804   -5.1974   -0.2009 C   0  0  0  0  0  0  0  0  0  0  0  0
   -4.8034   -3.7870    0.5906 N   0  0  0  0  0  0  0  0  0  0  0  0
   -1.7900   -2.4506   -0.9062 C   0  0  0  0  0  0  0  0  0  0  0  0
   -1.5475   -1.6854    0.6389 S   0  0  0  0  0  0  0  0  0  0  0  0
   -0.8757   -2.2666   -1.9595 C   0  0  0  0  0  0  0  0  0  0  0  0
   -0.6153   -3.1143   -3.0447 C   0  0  0  0  0  0  0  0  0  0  0  0
    0.3800   -2.5918   -3.9346 C   0  0  0  0  0  0  0  0  0  0  0  0
    0.7509   -3.2794   -5.0341 N   0  0  0  0  0  0  0  0  0  0  0  0
    0.1658   -4.4303   -5.2174 C   0  0  0  0  0  0  0  0  0  0  0  0
   -0.7800   -4.9808   -4.3076 C   0  0  0  0  0  0  0  0  0  0  0  0
   -1.3627   -6.3347   -4.5380 C   0  0  0  0  0  0  0  0  0  0  0  0
   -1.1542   -4.3277   -3.2373 N   0  0  0  0  0  0  0  0  0  0  0  0
    0.8806   -1.3479   -3.5340 C   0  0  0  0  0  0  0  0  0  0  0  0
    0.1313   -0.8547   -2.0533 S   0  0  0  0  0  0  0  0  0  0  0  0
    1.8328   -0.5421   -4.1991 C   0  0  0  0  0  0  0  0  0  0  0  0
    2.5651   -0.8794   -5.3068 C   0  0  0  0  0  0  0  0  0  0  0  0
    3.4343    0.1454   -5.7424 C   0  0  0  0  0  0  0  0  0  0  0  0
    4.3028    0.1292   -6.8507 C   0  0  0  0  0  0  0  0  0  0  0  0
    4.5078   -1.0929   -7.6335 C   0  0  0  0  0  0  0  0  0  0  0  0
    4.7541   -2.3053   -6.9927 C   0  0  0  0  0  0  0  0  0  0  0  0
    4.9677   -3.4647   -7.7105 C   0  0  0  0  0  0  0  0  0  0  0  0
    4.9319   -3.4582   -9.1004 C   0  0  0  0  0  0  0  0  0  0  0  0
    5.1882   -4.8693  -10.1257 S   0  0  0  0  0  0  0  0  0  0  0  0
    4.8605   -6.2780   -9.0101 C   0  0  0  0  0  0  0  0  0  0  0  0
    3.4087   -6.3421   -8.5751 C   0  0  0  0  0  0  0  0  0  0  0  0
    4.7057   -2.2337   -9.7301 C   0  0  0  0  0  0  0  0  0  0  0  0
    4.6834   -2.1856  -11.0778 F   0  0  0  0  0  0  0  0  0  0  0  0
    4.4971   -1.0690   -9.0265 C   0  0  0  0  0  0  0  0  0  0  0  0
    4.9800    1.3055   -7.1335 C   0  0  0  0  0  0  0  0  0  0  0  0
    4.8478    2.4801   -6.3475 C   0  0  0  0  0  0  0  0  0  0  0  0
    3.9922    2.4938   -5.2294 C   0  0  0  0  0  0  0  0  0  0  0  0
    3.7882    3.7065   -4.4294 C   0  0  0  0  0  0  0  0  0  0  0  0
    3.8542    3.6764   -3.0403 C   0  0  0  0  0  0  0  0  0  0  0  0
    3.6267    4.8116   -2.2859 C   0  0  0  0  0  0  0  0  0  0  0  0
    3.3234    6.0228   -2.8962 C   0  0  0  0  0  0  0  0  0  0  0  0
    2.9808    7.5414   -2.0727 S   0  0  0  0  0  0  0  0  0  0  0  0
    3.2912    7.1861   -0.3094 C   0  0  0  0  0  0  0  0  0  0  0  0
    4.7714    7.1299    0.0197 C   0  0  0  0  0  0  0  0  0  0  0  0
    3.2582    6.0380   -4.2914 C   0  0  0  0  0  0  0  0  0  0  0  0
    3.4828    4.9155   -5.0539 C   0  0  0  0  0  0  0  0  0  0  0  0
    2.9555    7.1938   -4.9179 F   0  0  0  0  0  0  0  0  0  0  0  0
    3.3206    1.3163   -4.9473 C   0  0  0  0  0  0  0  0  0  0  0  0
    2.1829    1.0858   -3.6431 S   0  0  0  0  0  0  0  0  0  0  0  0
    5.6918    3.5167   -6.8086 C   0  0  0  0  0  0  0  0  0  0  0  0
    6.4271    3.1684   -7.9077 C   0  0  0  0  0  0  0  0  0  0  0  0
    6.1264    1.5283   -8.4343 S   0  0  0  0  0  0  0  0  0  0  0  0
    7.3520    3.9514   -8.6406 C   0  0  0  0  0  0  0  0  0  0  0  0
    8.0373    3.5333   -9.7761 C   0  0  0  0  0  0  0  0  0  0  0  0
    8.9039    4.5445  -10.3159 C   0  0  0  0  0  0  0  0  0  0  0  0
    9.6440    4.2904  -11.4248 N   0  0  0  0  0  0  0  0  0  0  0  0
    9.5017    3.1064  -11.9391 C   0  0  0  0  0  0  0  0  0  0  0  0
    8.6333    2.0977  -11.4104 C   0  0  0  0  0  0  0  0  0  0  0  0
    8.5250    0.7676  -12.0730 C   0  0  0  0  0  0  0  0  0  0  0  0
    7.9170    2.3180  -10.3399 N   0  0  0  0  0  0  0  0  0  0  0  0
    8.8615    5.7089   -9.5849 C   0  0  0  0  0  0  0  0  0  0  0  0
    7.7851    5.5831   -8.2608 S   0  0  0  0  0  0  0  0  0  0  0  0
   -7.6612   -0.6435   13.5425 H   0  0  0  0  0  0  0  0  0  0  0  0
   -2.1693    1.2624   12.4109 H   0  0  0  0  0  0  0  0  0  0  0  0
   -3.8339    1.5712   15.8006 H   0  0  0  0  0  0  0  0  0  0  0  0
   -2.9342    2.6435   14.7084 H   0  0  0  0  0  0  0  0  0  0  0  0
   -2.2524    1.0817   15.1553 H   0  0  0  0  0  0  0  0  0  0  0  0
   -6.9767   -1.9074    8.3498 H   0  0  0  0  0  0  0  0  0  0  0  0
   -7.4705   -1.7637    3.8886 H   0  0  0  0  0  0  0  0  0  0  0  0
   -9.6787   -2.8227    3.6686 H   0  0  0  0  0  0  0  0  0  0  0  0
  -12.7988   -5.1651    6.6428 H   0  0  0  0  0  0  0  0  0  0  0  0
  -11.2403   -5.4580    7.4358 H   0  0  0  0  0  0  0  0  0  0  0  0
  -12.3512   -3.4060    8.3655 H   0  0  0  0  0  0  0  0  0  0  0  0
  -10.8486   -2.9753    7.5445 H   0  0  0  0  0  0  0  0  0  0  0  0
  -12.3987   -2.7007    6.7436 H   0  0  0  0  0  0  0  0  0  0  0  0
   -6.7182   -4.1429    7.3690 H   0  0  0  0  0  0  0  0  0  0  0  0
   -0.7081   -2.1987    5.4813 H   0  0  0  0  0  0  0  0  0  0  0  0
    1.5684   -1.3117    5.7746 H   0  0  0  0  0  0  0  0  0  0  0  0
    3.6429    3.0927    6.4745 H   0  0  0  0  0  0  0  0  0  0  0  0
    2.0097    3.3519    7.1144 H   0  0  0  0  0  0  0  0  0  0  0  0
    2.1573    4.0441    4.7025 H   0  0  0  0  0  0  0  0  0  0  0  0
    1.0468    2.6847    4.8915 H   0  0  0  0  0  0  0  0  0  0  0  0
    2.6771    2.4083    4.2706 H   0  0  0  0  0  0  0  0  0  0  0  0
   -2.2854    1.3795    7.2286 H   0  0  0  0  0  0  0  0  0  0  0  0
   -1.7627   -1.0951    3.5310 H   0  0  0  0  0  0  0  0  0  0  0  0
   -5.1081   -4.9824   -2.5211 H   0  0  0  0  0  0  0  0  0  0  0  0
   -7.3382   -4.8507   -0.9019 H   0  0  0  0  0  0  0  0  0  0  0  0
   -6.9258   -5.0375    0.8166 H   0  0  0  0  0  0  0  0  0  0  0  0
   -6.4298   -6.2628   -0.3694 H   0  0  0  0  0  0  0  0  0  0  0  0
    0.4552   -4.9778   -6.1053 H   0  0  0  0  0  0  0  0  0  0  0  0
   -1.8782   -6.3630   -5.4967 H   0  0  0  0  0  0  0  0  0  0  0  0
   -0.5764   -7.0882   -4.5556 H   0  0  0  0  0  0  0  0  0  0  0  0
   -2.0650   -6.5609   -3.7415 H   0  0  0  0  0  0  0  0  0  0  0  0
    2.4454   -1.8296   -5.7927 H   0  0  0  0  0  0  0  0  0  0  0  0
    4.8070   -2.3366   -5.9152 H   0  0  0  0  0  0  0  0  0  0  0  0
    5.1751   -4.3770   -7.1750 H   0  0  0  0  0  0  0  0  0  0  0  0
    5.1236   -7.1459   -9.6146 H   0  0  0  0  0  0  0  0  0  0  0  0
    5.5459   -6.2254   -8.1650 H   0  0  0  0  0  0  0  0  0  0  0  0
    3.2492   -7.2172   -7.9476 H   0  0  0  0  0  0  0  0  0  0  0  0
    2.7604   -6.4138   -9.4453 H   0  0  0  0  0  0  0  0  0  0  0  0
    3.1309   -5.4536   -8.0116 H   0  0  0  0  0  0  0  0  0  0  0  0
    4.3045   -0.1578   -9.5694 H   0  0  0  0  0  0  0  0  0  0  0  0
    4.1026    2.7546   -2.5371 H   0  0  0  0  0  0  0  0  0  0  0  0
    3.6826    4.7371   -1.2126 H   0  0  0  0  0  0  0  0  0  0  0  0
    2.7668    6.2690   -0.0444 H   0  0  0  0  0  0  0  0  0  0  0  0
    2.8137    8.0194    0.2064 H   0  0  0  0  0  0  0  0  0  0  0  0
    4.9075    6.9386    1.0825 H   0  0  0  0  0  0  0  0  0  0  0  0
    5.2451    8.0771   -0.2268 H   0  0  0  0  0  0  0  0  0  0  0  0
    5.2697    6.3433   -0.5425 H   0  0  0  0  0  0  0  0  0  0  0  0
    3.3903    4.9810   -6.1265 H   0  0  0  0  0  0  0  0  0  0  0  0
    5.7734    4.4814   -6.3405 H   0  0  0  0  0  0  0  0  0  0  0  0
   10.0888    2.8961  -12.8238 H   0  0  0  0  0  0  0  0  0  0  0  0
    7.8044    0.1526  -11.5415 H   0  0  0  0  0  0  0  0  0  0  0  0
    9.4938    0.2699  -12.0769 H   0  0  0  0  0  0  0  0  0  0  0  0
    8.2064    0.8879  -13.1074 H   0  0  0  0  0  0  0  0  0  0  0  0
    9.3996    6.6183   -9.7576 H   0  0  0  0  0  0  0  0  0  0  0  0
  1  2  2  0  0  0  0
  2  3  1  0  0  0  0
  3  4  1  0  0  0  0
  4  5  2  0  0  0  0
  5  6  1  0  0  0  0
  6  7  1  0  0  0  0
  6  8  2  0  0  0  0
  3  9  2  0  0  0  0
  9 10  1  0  0  0  0
  9 11  1  0  0  0  0
 11 12  2  0  0  0  0
 12 13  1  0  0  0  0
 13 14  2  0  0  0  0
 14 15  1  0  0  0  0
 15 16  2  0  0  0  0
 16 17  1  0  0  0  0
 17 18  2  0  0  0  0
 18 19  1  0  0  0  0
 19 20  1  0  0  0  0
 20 21  1  0  0  0  0
 18 22  1  0  0  0  0
 22 23  1  0  0  0  0
 22 24  2  0  0  0  0
 14 25  1  0  0  0  0
 25 26  2  0  0  0  0
 26 27  1  0  0  0  0
 27 28  1  0  0  0  0
 28 29  2  0  0  0  0
 29 30  1  0  0  0  0
 30 31  2  0  0  0  0
 31 32  1  0  0  0  0
 32 33  1  0  0  0  0
 33 34  1  0  0  0  0
 31 35  1  0  0  0  0
 35 36  2  0  0  0  0
 35 37  1  0  0  0  0
 27 38  2  0  0  0  0
 38 39  1  0  0  0  0
 26 40  1  0  0  0  0
 40 41  2  0  0  0  0
 41 42  1  0  0  0  0
 41 43  1  0  0  0  0
 43 44  2  0  0  0  0
 44 45  1  0  0  0  0
 45 46  1  0  0  0  0
 46 47  2  0  0  0  0
 47 48  1  0  0  0  0
 48 49  1  0  0  0  0
 48 50  2  0  0  0  0
 45 51  2  0  0  0  0
 51 52  1  0  0  0  0
 51 53  1  0  0  0  0
 53 54  2  0  0  0  0
 54 55  1  0  0  0  0
 55 56  1  0  0  0  0
 56 57  2  0  0  0  0
 57 58  1  0  0  0  0
 58 59  1  0  0  0  0
 58 60  2  0  0  0  0
 55 61  2  0  0  0  0
 61 62  1  0  0  0  0
 61 63  1  0  0  0  0
 63 64  2  0  0  0  0
 64 65  1  0  0  0  0
 65 66  2  0  0  0  0
 66 67  1  0  0  0  0
 67 68  2  0  0  0  0
 68 69  1  0  0  0  0
 69 70  2  0  0  0  0
 70 71  1  0  0  0  0
 71 72  1  0  0  0  0
 72 73  1  0  0  0  0
 70 74  1  0  0  0  0
 74 75  1  0  0  0  0
 74 76  2  0  0  0  0
 66 77  1  0  0  0  0
 77 78  2  0  0  0  0
 78 79  1  0  0  0  0
 79 80  1  0  0  0  0
 80 81  2  0  0  0  0
 81 82  1  0  0  0  0
 82 83  2  0  0  0  0
 83 84  1  0  0  0  0
 84 85  1  0  0  0  0
 85 86  1  0  0  0  0
 83 87  1  0  0  0  0
 87 88  2  0  0  0  0
 87 89  1  0  0  0  0
 79 90  2  0  0  0  0
 90 91  1  0  0  0  0
 78 92  1  0  0  0  0
 92 93  2  0  0  0  0
 93 94  1  0  0  0  0
 93 95  1  0  0  0  0
 95 96  2  0  0  0  0
 96 97  1  0  0  0  0
 97 98  1  0  0  0  0
 98 99  2  0  0  0  0
 99100  1  0  0  0  0
100101  1  0  0  0  0
100102  2  0  0  0  0
 97103  2  0  0  0  0
103104  1  0  0  0  0
 10  1  1  0  0  0  0
 39 11  1  0  0  0  0
 52 43  1  0  0  0  0
 62 53  1  0  0  0  0
 91 63  1  0  0  0  0
104 95  1  0  0  0  0
  8  2  1  0  0  0  0
 38 13  1  0  0  0  0
 50 44  1  0  0  0  0
 60 54  1  0  0  0  0
 90 65  1  0  0  0  0
102 96  1  0  0  0  0
 24 15  1  0  0  0  0
 42 25  1  0  0  0  0
 76 67  1  0  0  0  0
 94 77  1  0  0  0  0
 36 28  1  0  0  0  0
 88 80  1  0  0  0  0
  1105  1  0  0  0  0
  5106  1  0  0  0  0
  7107  1  0  0  0  0
  7108  1  0  0  0  0
  7109  1  0  0  0  0
 12110  1  0  0  0  0
 16111  1  0  0  0  0
 17112  1  0  0  0  0
 20113  1  0  0  0  0
 20114  1  0  0  0  0
 21115  1  0  0  0  0
 21116  1  0  0  0  0
 21117  1  0  0  0  0
 24118  1  0  0  0  0
 29119  1  0  0  0  0
 30120  1  0  0  0  0
 33121  1  0  0  0  0
 33122  1  0  0  0  0
 34123  1  0  0  0  0
 34124  1  0  0  0  0
 34125  1  0  0  0  0
 36126  1  0  0  0  0
 40127  1  0  0  0  0
 47128  1  0  0  0  0
 49129  1  0  0  0  0
 49130  1  0  0  0  0
 49131  1  0  0  0  0
 57132  1  0  0  0  0
 59133  1  0  0  0  0
 59134  1  0  0  0  0
 59135  1  0  0  0  0
 64136  1  0  0  0  0
 68137  1  0  0  0  0
 69138  1  0  0  0  0
 72139  1  0  0  0  0
 72140  1  0  0  0  0
 73141  1  0  0  0  0
 73142  1  0  0  0  0
 73143  1  0  0  0  0
 76144  1  0  0  0  0
 81145  1  0  0  0  0
 82146  1  0  0  0  0
 85147  1  0  0  0  0
 85148  1  0  0  0  0
 86149  1  0  0  0  0
 86150  1  0  0  0  0
 86151  1  0  0  0  0
 88152  1  0  0  0  0
 92153  1  0  0  0  0
 99154  1  0  0  0  0
101155  1  0  0  0  0
101156  1  0  0  0  0
101157  1  0  0  0  0
103158  1  0  0  0  0
M  END
