194

C          9.47380       -8.04250       11.75670
C         10.32970       -7.03070       11.38900
C          9.84660       -6.30070       10.24860
N         10.53470       -5.26660        9.72620
C         11.65340       -4.97350       10.32020
C         12.14790       -5.68810       11.45860
C         13.43950       -5.27970       12.08370
N         11.50230       -6.69480       11.98010
C          8.62720       -6.77170        9.77460
S          8.09980       -8.10730       10.73850
C          7.90330       -6.24370        8.67640
C          6.68090       -6.62770        8.20070
C          6.24880       -5.86460        7.09070
C          5.04600       -5.98190        6.37550
C          4.03740       -7.00820        6.66890
C          2.70220       -6.65250        6.85820
C          1.73630       -7.61650        7.03990
C          2.05900       -8.97310        7.04630
S          0.72540      -10.10890        7.27060
C          1.24350      -11.59850        6.32590
C          0.00590      -12.38460        5.93980
C          3.40180       -9.31170        6.91080
F          3.80050      -10.60380        6.96050
C          4.37830       -8.35520        6.71340
C          4.84470       -5.07390        5.34920
C          5.78850       -4.08360        4.98070
C          6.99630       -3.97550        5.69020
C          8.00210       -2.97070        5.32280
C          8.44630       -2.85280        4.00670
C          9.37350       -1.89250        3.66170
C          9.89470       -1.01760        4.61120
S         11.09380        0.16870        4.07160
C         10.53790        1.71540        4.88130
C          9.11360        2.07020        4.50490
C          9.47020       -1.17060        5.92740
C          8.53360       -2.11880        6.28520
F          9.96300       -0.38060        6.90580
C          7.18850       -4.85890        6.74280
S          8.59440       -4.90990        7.77910
C          5.31860       -3.27940        3.90890
C          4.08610       -3.64190        3.45620
S          3.43310       -5.01780        4.32910
C          3.28250       -3.05110        2.43850
C          1.99830       -3.39560        2.14030
C          1.42070       -2.61940        1.10790
C          0.11330       -2.71970        0.59840
C         -0.77970       -3.77570        1.08840
C         -0.33790       -5.09620        1.14960
C         -1.12430       -6.08910        1.69720
C         -2.38260       -5.79750        2.21210
S         -3.44770       -6.97430        2.97860
C         -2.30170       -8.26530        3.58330
C         -1.36380       -7.75240        4.65890
C         -2.83650       -4.48330        2.09100
F         -4.06390       -4.16790        2.54790
C         -2.06280       -3.48320        1.54380
C         -0.25560       -1.77070       -0.34110
C          0.64400       -0.78660       -0.82190
C          1.96880       -0.72170       -0.35400
C          2.88440        0.28690       -0.89870
C          3.00390        0.45470       -2.27710
C          3.78440        1.45940       -2.81180
C          4.47170        2.34230       -1.98580
S          5.45170        3.69270       -2.54850
C          4.84510        4.00490       -4.24480
C          3.41410        4.50430       -4.27480
C          4.38990        2.12610       -0.60890
C          3.61750        1.12530       -0.06220
F          5.07160        2.93800        0.22390
C          2.31700       -1.62950        0.63270
S          3.86320       -1.73290        1.44080
C          0.01890        0.09060       -1.73860
C         -1.28860       -0.20580       -1.98440
S         -1.82770       -1.61230       -1.08900
C         -2.16100        0.54480       -2.82430
C         -3.49590        0.39490       -3.05400
C         -4.03950        1.39060       -3.90710
C         -5.36390        1.53550       -4.35370
C         -6.44300        0.65410       -3.89360
C         -6.63750        0.39880       -2.53680
C         -7.70030       -0.36970       -2.11220
C         -8.60250       -0.92260       -3.01860
S         -9.93000       -1.89410       -2.36740
C        -11.36920       -1.37330       -3.37420
C        -11.59850        0.12340       -3.30620
C         -8.37020       -0.69590       -4.37170
F         -9.17310       -1.24150       -5.31260
C         -7.32410        0.08900       -4.80970
C         -5.62290        2.58240       -5.22680
C         -4.62730        3.49410       -5.66460
C         -3.30160        3.34980       -5.22200
C         -2.21380        4.22710       -5.67200
C         -1.96810        4.43050       -7.02860
C         -0.89090        5.18730       -7.44020
C         -0.02020        5.76760       -6.52110
S          1.38930        6.63720       -7.15140
C          1.44670        8.15670       -6.13080
C          0.16240        8.95370       -6.23570
C         -0.28090        5.56190       -5.17040
C         -1.36070        4.81690       -4.74440
F          0.52780        6.08520       -4.22340
C         -3.05060        2.30670       -4.34580
S         -1.48780        1.92070       -3.68060
C         -5.16710        4.51280       -6.48210
C         -6.51750        4.39380       -6.67260
S         -7.19780        3.00140       -5.85940
C         -7.38710        5.23110       -7.40500
C         -8.76000        5.03930       -7.54250
C         -9.41230        6.05090       -8.31660
N        -10.72360        5.94240       -8.60240
C        -11.34460        4.92400       -8.08140
C        -10.71490        3.94600       -7.25430
C        -11.49300        2.81840       -6.66670
N         -9.43080        4.00190       -7.01180
C         -8.52630        7.04220       -8.75500
S         -6.90720        6.67210       -8.23560
C         -8.80470        8.21090       -9.49470
C        -10.02340        8.88020       -9.63960
C         -9.91700       10.03460      -10.49550
N        -11.00450       10.79510      -10.77300
C        -12.11290       10.42930      -10.20380
C        -12.20890        9.33090       -9.29440
C        -13.49820        9.02640       -8.60870
N        -11.17710        8.57720       -9.02210
C         -8.63870       10.23970      -10.96060
S         -7.56560        9.04580      -10.38110
H          9.58070       -8.73940       12.56230
H         12.21540       -4.14470        9.91180
H         13.67060       -5.94230       12.91240
H         14.24190       -5.32070       11.34870
H         13.36960       -4.25550       12.44770
H          6.10490       -7.41890        8.64670
H          2.42200       -5.61080        6.86580
H          0.70320       -7.33680        7.17420
H          1.78180      -11.25130        5.44520
H          1.90660      -12.19170        6.95370
H          0.29440      -13.27150        5.38000
H         -0.65560      -11.78020        5.32270
H         -0.54040      -12.69510        6.82740
H          5.39960       -8.67600        6.57740
H          8.06900       -3.52740        3.25330
H          9.71120       -1.79910        2.64120
H         11.24100        2.46010        4.50870
H         10.66350        1.61540        5.95730
H          8.84650        3.02910        4.94450
H          9.00850        2.14060        3.42430
H          8.41650        1.31830        4.87120
H          8.22320       -2.17870        7.31630
H          5.86270       -2.44530        3.50300
H          1.47130       -4.16570        2.67420
H          0.63170       -5.35170        0.74920
H         -0.74860       -7.09930        1.72280
H         -1.76790       -8.69080        2.73430
H         -2.97420       -9.02330        3.98500
H         -1.93540       -7.32140        5.47750
H         -0.76430       -8.57170        5.05100
H         -0.69400       -6.98980        4.26590
H         -2.45290       -2.47840        1.51120
H          2.48740       -0.22150       -2.94170
H          3.85310        1.55260       -3.88350
H          4.98360        3.10260       -4.83930
H          5.52900        4.76930       -4.61400
H          2.72530        3.75560       -3.88870
H          3.12960        4.74090       -5.29860
H          3.31350        5.40260       -3.67050
H          3.56490        1.03100        1.01070
H          0.50910        0.94010       -2.17900
H         -4.06960       -0.41030       -2.63100
H         -5.97460        0.84120       -1.80910
H         -7.85900       -0.54930       -1.06030
H        -12.19850       -1.91910       -2.92440
H        -11.23100       -1.71860       -4.39640
H        -12.50090        0.38090       -3.85730
H        -11.71480        0.44470       -2.27330
H        -10.76150        0.66560       -3.74300
H         -7.19260        0.23060       -5.87070
H         -2.61270        3.97080       -7.76200
H         -0.69550        5.33290       -8.49130
H          1.67500        7.88380       -5.10300
H          2.28900        8.70810       -6.54840
H         -0.67610        8.39400       -5.82460
H         -0.05680        9.19120       -7.27470
H          0.26170        9.88270       -5.67800
H         -1.52230        4.70080       -3.68420
H         -4.59060        5.32000       -6.89820
H        -12.39500        4.83030       -8.32420
H        -12.20890        3.19910       -5.93910
H        -10.81420        2.12810       -6.17420
H        -12.04790        2.29520       -7.44340
H        -12.98800       11.02490      -10.42980
H        -13.36980        8.15200       -7.97790
H        -14.27840        8.83490       -9.34380
H        -13.81110        9.87290       -7.99870
H         -8.29110       11.01340      -11.61410
