266

C         -6.10720       -8.15700        9.86210
C         -5.60270       -6.96310        9.49170
C         -5.95020       -6.60440        8.15530
C         -5.56570       -5.46590        7.43480
C         -4.72120       -4.40910        8.00870
C         -5.05150       -3.76970        9.19870
C         -4.26640       -2.75010        9.70520
C         -3.11290       -2.34380        9.04450
S         -2.03420       -1.04440        9.54810
C         -2.51230       -0.70380       11.27540
C         -2.10420       -1.82170       12.21590
C         -2.79160       -2.99960        7.85490
F         -1.67500       -2.63500        7.19250
C         -3.56890       -4.00740        7.33460
C         -6.00330       -5.38730        6.12100
C         -6.77640       -6.39190        5.48970
C         -7.14590       -7.54080        6.20730
C         -7.89650       -8.63100        5.57420
C         -7.47410       -9.17470        4.36430
C         -8.16200      -10.21170        3.76460
C         -9.30110      -10.74590        4.35620
S        -10.29100      -12.04490        3.69860
C         -9.30990      -12.70610        2.30780
C         -8.11340      -13.51260        2.77630
C         -9.71410      -10.18910        5.56880
C         -9.03650       -9.15800        6.17800
F        -10.82130      -10.67410        6.16540
C         -6.73750       -7.60410        7.53350
S         -7.03390       -8.93390        8.62480
C         -7.09390       -6.04810        4.14770
C         -6.59730       -4.83990        3.76500
S         -5.70580       -4.04560        5.05190
C         -6.62630       -4.20440        2.48740
C         -6.22870       -2.92930        2.22200
C         -6.19850       -2.61310        0.84210
C         -5.76930       -1.41500        0.24750
C         -5.17990       -0.33820        1.05130
C         -5.53660        0.99830        0.88170
C         -4.93730        1.98390        1.63580
C         -3.96640        1.68910        2.59520
S         -3.34110        3.05520        3.52140
C         -1.65770        2.58040        4.06540
C         -0.72150        2.32620        2.90240
C         -3.63030        0.34860        2.76090
F         -2.72220       -0.04320        3.68240
C         -4.20500       -0.64520        1.99610
C         -5.81660       -1.36040       -1.13720
C         -6.20960       -2.46000       -1.94010
C         -6.63970       -3.65780       -1.34250
C         -6.99330       -4.81250       -2.17750
C         -7.90540       -4.68560       -3.22410
C         -8.16110       -5.74810       -4.06550
C         -7.52140       -6.97200       -3.89280
S         -7.85890       -8.27530       -5.04640
C         -6.16690       -8.80940       -5.50850
C         -5.35920       -7.67280       -6.10240
C         -6.66260       -7.10390       -2.80670
C         -6.38580       -6.04560       -1.96550
F         -6.05410       -8.28200       -2.55260
C         -6.62420       -3.70340        0.04290
S         -7.05400       -5.08050        1.02990
C         -5.93880       -2.23080       -3.31520
C         -5.38160       -1.01360       -3.56570
S         -5.22540       -0.04270       -2.11310
C         -4.71380       -0.57870       -4.75600
C         -4.05610       -1.39210       -5.63170
C         -3.14570       -0.70040       -6.47160
C         -2.10740       -1.27670       -7.22780
C         -2.08920       -2.72680       -7.45680
C         -3.21860       -3.35350       -7.97980
C         -3.24440       -4.71630       -8.19830
C         -2.13980       -5.50500       -7.89740
S         -2.07620       -7.25670       -8.10120
C         -3.27150       -7.57390       -9.44760
C         -2.83650       -6.94800      -10.75790
C         -1.02160       -4.86790       -7.35920
F          0.05710       -5.60370       -7.02750
C         -0.97970       -3.50740       -7.14420
C         -1.09680       -0.42020       -7.63510
C         -1.17110        0.98640       -7.46210
C         -2.24490        1.57070       -6.76820
C         -2.26680        3.00960       -6.47460
C         -3.38170        3.79490       -6.76100
C         -3.36240        5.15070       -6.51950
C         -2.23730        5.79400       -5.99460
S         -2.36650        7.54590       -5.85340
C         -1.05000        8.10000       -4.71210
C         -1.27070        7.61980       -3.29250
C         -1.14100        4.99070       -5.69560
C         -1.15790        3.62680       -5.90590
F          0.00760        5.50230       -5.19370
C         -3.18350        0.69700       -6.24570
S         -4.36760        1.11580       -5.03350
C          0.02960        1.63020       -7.83880
C          1.04820        0.76530       -8.12970
S          0.47630       -0.89040       -8.23770
C          2.42740        1.06970       -7.89960
C          2.89530        2.28330       -7.47390
C          4.07810        2.19710       -6.70250
C          4.58900        3.19540       -5.85160
C          4.05530        4.56200       -5.92520
C          4.00760        5.23950       -7.14300
C          3.47800        6.50970       -7.21950
C          2.95840        7.14620       -6.09430
S          2.25210        8.75320       -6.32360
C          2.78350        9.68750       -4.84080
C          4.29070        9.69820       -4.68480
C          2.98400        6.44730       -4.89190
F          2.45860        6.98360       -3.77030
C          3.53550        5.18610       -4.79620
C          5.47980        2.77600       -4.87810
C          5.92820        1.43230       -4.75890
C          5.48750        0.45910       -5.67220
C          5.86160       -0.95790       -5.57380
C          5.67490       -1.68030       -4.39880
C          5.95780       -3.03110       -4.34550
C          6.43980       -3.70610       -5.46160
S          6.83990       -5.42320       -5.49910
C          5.75600       -6.13780       -4.21230
C          4.28610       -5.98370       -4.55020
C          6.64280       -2.96370       -6.62520
C          6.35150       -1.61960       -6.69710
F          7.12930       -3.57670       -7.72090
C          4.54880        0.86520       -6.60630
S          3.56880       -0.22260       -7.56200
C          6.68700        1.22730       -3.58320
C          6.78210        2.34110       -2.79480
S          6.07590        3.75610       -3.56210
C          7.14400        2.37180       -1.42350
C          7.18410        1.26930       -0.56510
C          7.23110        1.64130        0.81890
N          7.23810        0.70420        1.78980
C          7.19260       -0.53470        1.39240
C          7.13370       -0.91660        0.02010
C          7.07670       -2.35670       -0.36660
N          7.12930       -0.02470       -0.93740
C          7.26370        3.02220        1.01290
S          7.24960        3.84000       -0.51120
C          7.20780        3.71150        2.25500
C          6.63840        3.24870        3.40650
C          6.67790        4.18380        4.47020
C          6.11750        4.05570        5.75200
C          5.24150        2.92990        6.09770
C          5.41250        2.18730        7.26430
C          4.53230        1.17760        7.58750
C          3.44420        0.86190        6.77250
S          2.42550       -0.48490        7.29410
C          0.72920       -0.05830        6.76000
C          0.24820        1.23570        7.38300
C          3.30280        1.59710        5.59930
F          2.29460        1.34410        4.73050
C          4.17190        2.61500        5.26470
C          6.36760        5.08980        6.64370
C          7.08920        6.25670        6.29440
C          7.58250        6.41810        4.99070
C          8.27220        7.64470        4.57150
C          9.51090        7.58640        3.94070
C         10.16130        8.73500        3.53340
C          9.58740        9.98570        3.72920
S         10.30950       11.52600        3.27030
C         11.63210       11.06650        2.09820
C         11.08290       10.54470        0.78420
C          8.34690       10.02930        4.36850
C          7.69260        8.89330        4.78820
F          7.76190       11.22560        4.58240
C          7.37380        5.36580        4.11260
S          7.85630        5.33180        2.43520
C          7.20430        7.15330        7.39830
C          6.57930        6.70540        8.50560
S          5.81310        5.16750        8.29700
H         -5.99860       -8.65430       10.80630
H         -4.98950       -6.34880       10.12580
H         -5.95180       -4.05290        9.72330
H         -4.57220       -2.26530       10.61830
H         -3.58160       -0.49840       11.30780
H         -1.97640        0.21570       11.51140
H         -1.02860       -1.97570       12.16960
H         -2.59520       -2.75560       11.95040
H         -2.37590       -1.56400       13.23780
H         -3.26240       -4.48470        6.41760
H         -6.57880       -8.79660        3.89420
H         -7.80060      -10.59680        2.82520
H         -9.02990      -11.88070        1.65470
H        -10.01930      -13.34100        1.77680
H         -7.43050      -12.89940        3.36040
H         -7.57630      -13.91020        1.91720
H         -8.44170      -14.34310        3.39660
H         -9.41220       -8.76120        7.10770
H         -7.68320       -6.66690        3.49480
H         -5.96820       -2.23520        3.00050
H         -6.29590        1.26440        0.16260
H         -5.21620        3.01720        1.49900
H         -1.33720        3.44760        4.64360
H         -1.72830        1.72100        4.72750
H         -0.67020        3.19800        2.25350
H          0.27420        2.10920        3.28220
H         -1.05400        1.47480        2.31260
H         -3.86900       -1.66000        2.14260
H         -8.41270       -3.74500       -3.37640
H         -8.85560       -5.64400       -4.88470
H         -6.33920       -9.59640       -6.24220
H         -5.68200       -9.23930       -4.63510
H         -5.19690       -6.88520       -5.36800
H         -4.38820       -8.04140       -6.42730
H         -5.88140       -7.24390       -6.95580
H         -5.68270       -6.19120       -1.16060
H         -6.11170       -2.96470       -4.08130
H         -4.12100       -2.46450       -5.59440
H         -4.08560       -2.76010       -8.22930
H         -4.13870       -5.16570       -8.59910
H         -3.28600       -8.66140       -9.52000
H         -4.25770       -7.23470       -9.13380
H         -3.54470       -7.20490      -11.54320
H         -1.85310       -7.31500      -11.04190
H         -2.78810       -5.86400      -10.67430
H         -0.09000       -3.07380       -6.71670
H         -4.26080        3.33850       -7.18950
H         -4.22560        5.75550       -6.75000
H         -0.08840        7.78950       -5.11110
H         -1.11980        9.18670       -4.77370
H         -1.22990        6.53470       -3.23580
H         -0.49070        8.02120       -2.64900
H         -2.23890        7.95040       -2.92240
H         -0.29170        3.05520       -5.60890
H          0.16400        2.69360       -7.79040
H          2.34950        3.20150       -7.59120
H          4.40910        4.77050       -8.02880
H          3.45270        7.03580       -8.16130
H          2.39980       10.69020       -5.02980
H          2.28640        9.27620       -3.96500
H          4.66910        8.69550       -4.49400
H          4.56640       10.33350       -3.84550
H          4.76580       10.08210       -5.58540
H          3.51260        4.68730       -3.84050
H          5.27880       -1.18700       -3.52420
H          5.79550       -3.56370       -3.42180
H          6.01030       -5.69580       -3.24940
H          6.04480       -7.18870       -4.19710
H          4.06910       -6.44200       -5.51190
H          3.67840       -6.46980       -3.78940
H          4.00420       -4.93390       -4.60070
H          6.51440       -1.09460       -7.62540
H          7.09700        0.28230       -3.28240
H          7.20170       -1.28830        2.16860
H          7.13040       -2.44530       -1.44820
H          6.14720       -2.80070       -0.01140
H          7.90360       -2.90170        0.08550
H          6.20910        2.26700        3.48020
H          6.24590        2.39810        7.91610
H          4.66860        0.60600        8.49230
H          0.69060       -0.03320        5.67370
H          0.13960       -0.90250        7.11500
H          0.81780        2.08680        7.01340
H          0.34650        1.19360        8.46550
H         -0.80090        1.38650        7.13890
H          3.99600        3.16830        4.35490
H          9.98560        6.62990        3.78460
H         11.12860        8.64520        3.06690
H         12.17250       12.00140        1.94880
H         12.29960       10.35580        2.58380
H         10.44580       11.29420        0.32060
H         10.49500        9.64180        0.93550
H         11.90260       10.31630        0.10550
H          6.72480        8.98520        5.25610
H          7.74570        8.08060        7.35230
H          6.51640        7.18110        9.46480
