
  xtb     03052201113D
 energy: -154.663352113073 gnorm: 0.000349806574 xtb: 6.4.1 (unknown)
 86 97  0     0  0            999 V2000
    7.5266   -5.1991    3.8539 C   0  0  0  0  0  0  0  0  0  0  0  0
    6.3944   -5.5881    4.5643 C   0  0  0  0  0  0  0  0  0  0  0  0
    6.1019   -6.8158    5.1801 C   0  0  0  0  0  0  0  0  0  0  0  0
    4.9204   -6.9459    5.8720 C   0  0  0  0  0  0  0  0  0  0  0  0
    4.0339   -5.8711    5.9692 C   0  0  0  0  0  0  0  0  0  0  0  0
    4.3045   -4.6456    5.3744 C   0  0  0  0  0  0  0  0  0  0  0  0
    5.4690   -4.4909    4.6412 C   0  0  0  0  0  0  0  0  0  0  0  0
    6.0333   -3.3619    3.9245 C   0  0  0  0  0  0  0  0  0  0  0  0
    7.3937   -3.8275    3.4386 C   0  0  0  0  0  0  0  0  0  0  0  0
    8.1891   -3.1957    2.7606 O   0  0  0  0  0  0  0  0  0  0  0  0
    5.4596   -2.1834    3.5666 C   0  0  0  0  0  0  0  0  0  0  0  0
    6.0490   -1.0540    2.8613 C   0  0  0  0  0  0  0  0  0  0  0  0
    7.3495   -0.5756    2.8476 C   0  0  0  0  0  0  0  0  0  0  0  0
    7.6389    0.5581    2.1037 C   0  0  0  0  0  0  0  0  0  0  0  0
    6.6480    1.2205    1.3923 C   0  0  0  0  0  0  0  0  0  0  0  0
    5.3324    0.7883    1.4386 C   0  0  0  0  0  0  0  0  0  0  0  0
    5.0271   -0.3394    2.1849 C   0  0  0  0  0  0  0  0  0  0  0  0
    3.7504   -0.9602    2.4601 C   0  0  0  0  0  0  0  0  0  0  0  0
    3.9923   -1.8702    3.6124 C   0  0  0  0  0  0  0  0  0  0  0  0
    3.1955   -2.1528    4.4720 O   0  0  0  0  0  0  0  0  0  0  0  0
    2.5474   -0.7833    1.8507 C   0  0  0  0  0  0  0  0  0  0  0  0
    1.3605   -1.5844    2.0241 C   0  0  0  0  0  0  0  0  0  0  0  0
    0.2661   -1.1350    1.2557 C   0  0  0  0  0  0  0  0  0  0  0  0
   -0.9244   -1.7285    1.3068 N   0  0  0  0  0  0  0  0  0  0  0  0
   -1.0115   -2.7834    2.0861 C   0  0  0  0  0  0  0  0  0  0  0  0
    0.0979   -3.3032    2.7812 C   0  0  0  0  0  0  0  0  0  0  0  0
    0.0068   -4.5586    3.5813 C   0  0  0  0  0  0  0  0  0  0  0  0
    1.2706   -2.6938    2.7469 N   0  0  0  0  0  0  0  0  0  0  0  0
    0.5642   -0.0092    0.4340 C   0  0  0  0  0  0  0  0  0  0  0  0
    2.2359    0.4604    0.6299 S   0  0  0  0  0  0  0  0  0  0  0  0
   -0.2917    0.6595   -0.3869 C   0  0  0  0  0  0  0  0  0  0  0  0
    0.0951    1.7901   -1.1597 C   0  0  0  0  0  0  0  0  0  0  0  0
   -0.9583    2.3329   -1.9265 C   0  0  0  0  0  0  0  0  0  0  0  0
   -0.7404    3.3947   -2.6991 N   0  0  0  0  0  0  0  0  0  0  0  0
    0.4856    3.8839   -2.6986 C   0  0  0  0  0  0  0  0  0  0  0  0
    1.5344    3.3449   -1.9368 C   0  0  0  0  0  0  0  0  0  0  0  0
    2.9081    3.9239   -1.9629 C   0  0  0  0  0  0  0  0  0  0  0  0
    1.3260    2.2900   -1.1628 N   0  0  0  0  0  0  0  0  0  0  0  0
   -2.1953    1.6190   -1.7553 C   0  0  0  0  0  0  0  0  0  0  0  0
   -1.9843    0.2660   -0.6380 S   0  0  0  0  0  0  0  0  0  0  0  0
   -3.4302    1.8137   -2.3082 C   0  0  0  0  0  0  0  0  0  0  0  0
   -4.0052    2.7724   -3.2209 C   0  0  0  0  0  0  0  0  0  0  0  0
   -3.4936    3.9495   -3.7460 C   0  0  0  0  0  0  0  0  0  0  0  0
   -4.3148    4.7451   -4.5291 C   0  0  0  0  0  0  0  0  0  0  0  0
   -5.6394    4.3972   -4.7596 C   0  0  0  0  0  0  0  0  0  0  0  0
   -6.1621    3.2214   -4.2457 C   0  0  0  0  0  0  0  0  0  0  0  0
   -5.3394    2.3828   -3.5069 C   0  0  0  0  0  0  0  0  0  0  0  0
   -5.6729    1.1710   -2.7828 C   0  0  0  0  0  0  0  0  0  0  0  0
   -4.4803    0.8466   -1.9565 C   0  0  0  0  0  0  0  0  0  0  0  0
   -4.2844   -0.1033   -1.2216 O   0  0  0  0  0  0  0  0  0  0  0  0
   -6.7897    0.3954   -2.8558 C   0  0  0  0  0  0  0  0  0  0  0  0
   -7.7314    0.2384   -3.9319 C   0  0  0  0  0  0  0  0  0  0  0  0
   -7.6480    0.5805   -5.2740 C   0  0  0  0  0  0  0  0  0  0  0  0
   -8.6733    0.2114   -6.1289 C   0  0  0  0  0  0  0  0  0  0  0  0
   -9.7778   -0.5149   -5.6689 C   0  0  0  0  0  0  0  0  0  0  0  0
   -9.8569   -0.9278   -4.3603 C   0  0  0  0  0  0  0  0  0  0  0  0
   -8.8191   -0.5837   -3.4764 C   0  0  0  0  0  0  0  0  0  0  0  0
   -8.5906   -0.9706   -2.1598 C   0  0  0  0  0  0  0  0  0  0  0  0
   -7.3265   -0.4370   -1.7027 C   0  0  0  0  0  0  0  0  0  0  0  0
   -6.8616   -0.5097   -0.5832 O   0  0  0  0  0  0  0  0  0  0  0  0
    8.3745   -5.8131    3.6119 H   0  0  0  0  0  0  0  0  0  0  0  0
    6.8050   -7.6319    5.1094 H   0  0  0  0  0  0  0  0  0  0  0  0
    4.6753   -7.8814    6.3532 H   0  0  0  0  0  0  0  0  0  0  0  0
    3.1168   -5.9937    6.5262 H   0  0  0  0  0  0  0  0  0  0  0  0
    3.6046   -3.8341    5.4788 H   0  0  0  0  0  0  0  0  0  0  0  0
    8.1277   -1.0698    3.4030 H   0  0  0  0  0  0  0  0  0  0  0  0
    8.6514    0.9321    2.0815 H   0  0  0  0  0  0  0  0  0  0  0  0
    6.9006    2.0962    0.8127 H   0  0  0  0  0  0  0  0  0  0  0  0
    4.5596    1.3312    0.9184 H   0  0  0  0  0  0  0  0  0  0  0  0
   -1.9844   -3.2504    2.1477 H   0  0  0  0  0  0  0  0  0  0  0  0
   -0.7374   -4.4473    4.3681 H   0  0  0  0  0  0  0  0  0  0  0  0
   -0.2946   -5.3911    2.9476 H   0  0  0  0  0  0  0  0  0  0  0  0
    0.9753   -4.7695    4.0255 H   0  0  0  0  0  0  0  0  0  0  0  0
    0.6470    4.7463   -3.3314 H   0  0  0  0  0  0  0  0  0  0  0  0
    2.8805    4.9777   -1.6913 H   0  0  0  0  0  0  0  0  0  0  0  0
    3.5397    3.3835   -1.2640 H   0  0  0  0  0  0  0  0  0  0  0  0
    3.3296    3.8450   -2.9640 H   0  0  0  0  0  0  0  0  0  0  0  0
   -2.4754    4.2317   -3.5350 H   0  0  0  0  0  0  0  0  0  0  0  0
   -3.9255    5.6618   -4.9472 H   0  0  0  0  0  0  0  0  0  0  0  0
   -6.2726    5.0524   -5.3396 H   0  0  0  0  0  0  0  0  0  0  0  0
   -7.2024    2.9783   -4.3974 H   0  0  0  0  0  0  0  0  0  0  0  0
   -6.7926    1.1172   -5.6549 H   0  0  0  0  0  0  0  0  0  0  0  0
   -8.6220    0.4884   -7.1712 H   0  0  0  0  0  0  0  0  0  0  0  0
  -10.5645   -0.7702   -6.3635 H   0  0  0  0  0  0  0  0  0  0  0  0
  -10.6839   -1.5268   -4.0106 H   0  0  0  0  0  0  0  0  0  0  0  0
   -9.2493   -1.5449   -1.5354 H   0  0  0  0  0  0  0  0  0  0  0  0
  1  2  2  0  0  0  0
  2  3  1  0  0  0  0
  3  4  2  0  0  0  0
  4  5  1  0  0  0  0
  5  6  2  0  0  0  0
  6  7  1  0  0  0  0
  7  8  2  0  0  0  0
  8  9  1  0  0  0  0
  9 10  2  0  0  0  0
  8 11  1  0  0  0  0
 11 12  2  0  0  0  0
 12 13  1  0  0  0  0
 13 14  2  0  0  0  0
 14 15  1  0  0  0  0
 15 16  2  0  0  0  0
 16 17  1  0  0  0  0
 17 18  2  0  0  0  0
 18 19  1  0  0  0  0
 19 20  2  0  0  0  0
 18 21  1  0  0  0  0
 21 22  2  0  0  0  0
 22 23  1  0  0  0  0
 23 24  1  0  0  0  0
 24 25  2  0  0  0  0
 25 26  1  0  0  0  0
 26 27  1  0  0  0  0
 26 28  2  0  0  0  0
 23 29  2  0  0  0  0
 29 30  1  0  0  0  0
 29 31  1  0  0  0  0
 31 32  2  0  0  0  0
 32 33  1  0  0  0  0
 33 34  1  0  0  0  0
 34 35  2  0  0  0  0
 35 36  1  0  0  0  0
 36 37  1  0  0  0  0
 36 38  2  0  0  0  0
 33 39  2  0  0  0  0
 39 40  1  0  0  0  0
 39 41  1  0  0  0  0
 41 42  2  0  0  0  0
 42 43  1  0  0  0  0
 43 44  2  0  0  0  0
 44 45  1  0  0  0  0
 45 46  2  0  0  0  0
 46 47  1  0  0  0  0
 47 48  2  0  0  0  0
 48 49  1  0  0  0  0
 49 50  2  0  0  0  0
 48 51  1  0  0  0  0
 51 52  2  0  0  0  0
 52 53  1  0  0  0  0
 53 54  2  0  0  0  0
 54 55  1  0  0  0  0
 55 56  2  0  0  0  0
 56 57  1  0  0  0  0
 57 58  2  0  0  0  0
 58 59  1  0  0  0  0
 59 60  2  0  0  0  0
  9  1  1  0  0  0  0
 19 11  1  0  0  0  0
 30 21  1  0  0  0  0
 40 31  1  0  0  0  0
 49 41  1  0  0  0  0
 59 51  1  0  0  0  0
  7  2  1  0  0  0  0
 17 12  1  0  0  0  0
 28 22  1  0  0  0  0
 38 32  1  0  0  0  0
 47 42  1  0  0  0  0
 57 52  1  0  0  0  0
  1 61  1  0  0  0  0
  3 62  1  0  0  0  0
  4 63  1  0  0  0  0
  5 64  1  0  0  0  0
  6 65  1  0  0  0  0
 13 66  1  0  0  0  0
 14 67  1  0  0  0  0
 15 68  1  0  0  0  0
 16 69  1  0  0  0  0
 25 70  1  0  0  0  0
 27 71  1  0  0  0  0
 27 72  1  0  0  0  0
 27 73  1  0  0  0  0
 35 74  1  0  0  0  0
 37 75  1  0  0  0  0
 37 76  1  0  0  0  0
 37 77  1  0  0  0  0
 43 78  1  0  0  0  0
 44 79  1  0  0  0  0
 45 80  1  0  0  0  0
 46 81  1  0  0  0  0
 53 82  1  0  0  0  0
 54 83  1  0  0  0  0
 55 84  1  0  0  0  0
 56 85  1  0  0  0  0
 58 86  1  0  0  0  0
M  END
