
  xtb     03042208463D
 energy: -402.646488517955 gnorm: 0.000235979820 xtb: 6.4.1 (unknown)
230253  0     0  0            999 V2000
   -0.9711   -2.3824   10.6346 C   0  0  0  0  0  0  0  0  0  0  0  0
   -0.4387   -1.7878    9.5481 C   0  0  0  0  0  0  0  0  0  0  0  0
   -0.7387   -2.4751    8.3341 C   0  0  0  0  0  0  0  0  0  0  0  0
   -0.3853   -2.1204    7.0220 C   0  0  0  0  0  0  0  0  0  0  0  0
    0.4692   -0.9620    6.7327 C   0  0  0  0  0  0  0  0  0  0  0  0
    1.6482   -0.7309    7.4433 C   0  0  0  0  0  0  0  0  0  0  0  0
    2.4357    0.3640    7.1657 C   0  0  0  0  0  0  0  0  0  0  0  0
    2.0971    1.2784    6.1648 C   0  0  0  0  0  0  0  0  0  0  0  0
    3.1765    2.6627    5.9986 S   0  0  0  0  0  0  0  0  0  0  0  0
    2.7767    3.4353    4.3833 C   0  0  0  0  0  0  0  0  0  0  0  0
    3.7985    4.5186    4.1001 C   0  0  0  0  0  0  0  0  0  0  0  0
    0.9298    1.0242    5.4513 C   0  0  0  0  0  0  0  0  0  0  0  0
    0.5173    1.8443    4.4562 F   0  0  0  0  0  0  0  0  0  0  0  0
    0.1282   -0.0661    5.7244 C   0  0  0  0  0  0  0  0  0  0  0  0
   -0.8974   -2.9229    6.0108 C   0  0  0  0  0  0  0  0  0  0  0  0
   -1.7200   -4.0527    6.2434 C   0  0  0  0  0  0  0  0  0  0  0  0
   -2.0586   -4.4129    7.5568 C   0  0  0  0  0  0  0  0  0  0  0  0
   -2.9339   -5.5571    7.8347 C   0  0  0  0  0  0  0  0  0  0  0  0
   -4.1592   -5.6888    7.1875 C   0  0  0  0  0  0  0  0  0  0  0  0
   -4.9944   -6.7594    7.4430 C   0  0  0  0  0  0  0  0  0  0  0  0
   -4.6283   -7.7435    8.3548 C   0  0  0  0  0  0  0  0  0  0  0  0
   -5.5837   -9.1608    8.7663 S   0  0  0  0  0  0  0  0  0  0  0  0
   -7.0378   -9.0311    7.6592 C   0  0  0  0  0  0  0  0  0  0  0  0
   -7.9210  -10.2456    7.8750 C   0  0  0  0  0  0  0  0  0  0  0  0
   -3.4001   -7.5933    9.0034 C   0  0  0  0  0  0  0  0  0  0  0  0
   -2.5630   -6.5286    8.7627 C   0  0  0  0  0  0  0  0  0  0  0  0
   -3.0155   -8.5302    9.8932 F   0  0  0  0  0  0  0  0  0  0  0  0
   -1.5468   -3.6140    8.5704 C   0  0  0  0  0  0  0  0  0  0  0  0
   -1.8743   -3.8123   10.2729 S   0  0  0  0  0  0  0  0  0  0  0  0
   -2.0824   -4.7086    5.0355 C   0  0  0  0  0  0  0  0  0  0  0  0
   -1.5676   -4.1185    3.9237 C   0  0  0  0  0  0  0  0  0  0  0  0
   -0.6013   -2.7069    4.3075 S   0  0  0  0  0  0  0  0  0  0  0  0
   -1.7806   -4.4002    2.5417 C   0  0  0  0  0  0  0  0  0  0  0  0
   -1.0681   -3.8642    1.5124 C   0  0  0  0  0  0  0  0  0  0  0  0
   -1.6318   -4.1074    0.2383 C   0  0  0  0  0  0  0  0  0  0  0  0
   -1.2379   -3.5562   -0.9926 C   0  0  0  0  0  0  0  0  0  0  0  0
   -0.1160   -2.6123   -1.0831 C   0  0  0  0  0  0  0  0  0  0  0  0
    0.0123   -1.5622   -0.1721 C   0  0  0  0  0  0  0  0  0  0  0  0
    1.0685   -0.6823   -0.2518 C   0  0  0  0  0  0  0  0  0  0  0  0
    2.0361   -0.7982   -1.2483 C   0  0  0  0  0  0  0  0  0  0  0  0
    3.3338    0.4049   -1.2524 S   0  0  0  0  0  0  0  0  0  0  0  0
    4.8278   -0.5200   -1.7698 C   0  0  0  0  0  0  0  0  0  0  0  0
    5.1184   -1.7061   -0.8724 C   0  0  0  0  0  0  0  0  0  0  0  0
    1.8709   -1.8185   -2.1795 C   0  0  0  0  0  0  0  0  0  0  0  0
    2.7398   -1.9693   -3.2036 F   0  0  0  0  0  0  0  0  0  0  0  0
    0.8280   -2.7205   -2.0986 C   0  0  0  0  0  0  0  0  0  0  0  0
   -2.0408   -3.8536   -2.0835 C   0  0  0  0  0  0  0  0  0  0  0  0
   -3.2196   -4.6427   -1.9986 C   0  0  0  0  0  0  0  0  0  0  0  0
   -3.5931   -5.2135   -0.7679 C   0  0  0  0  0  0  0  0  0  0  0  0
   -4.8338   -5.9827   -0.6063 C   0  0  0  0  0  0  0  0  0  0  0  0
   -6.0632   -5.4883   -1.0416 C   0  0  0  0  0  0  0  0  0  0  0  0
   -7.2167   -6.2192   -0.8571 C   0  0  0  0  0  0  0  0  0  0  0  0
   -7.1993   -7.4634   -0.2292 C   0  0  0  0  0  0  0  0  0  0  0  0
   -8.7537   -8.2799   -0.0164 S   0  0  0  0  0  0  0  0  0  0  0  0
   -8.3777  -10.0485   -0.3030 C   0  0  0  0  0  0  0  0  0  0  0  0
   -7.7715  -10.2851   -1.6714 C   0  0  0  0  0  0  0  0  0  0  0  0
   -5.9708   -7.9283    0.2295 C   0  0  0  0  0  0  0  0  0  0  0  0
   -4.8052   -7.2142    0.0395 C   0  0  0  0  0  0  0  0  0  0  0  0
   -5.8763   -9.1050    0.8862 F   0  0  0  0  0  0  0  0  0  0  0  0
   -2.7834   -4.9287    0.3224 C   0  0  0  0  0  0  0  0  0  0  0  0
   -3.1410   -5.3491    1.9816 S   0  0  0  0  0  0  0  0  0  0  0  0
   -3.9623   -4.6223   -3.2069 C   0  0  0  0  0  0  0  0  0  0  0  0
   -3.4257   -3.8061   -4.1616 C   0  0  0  0  0  0  0  0  0  0  0  0
   -1.8742   -3.1374   -3.6661 S   0  0  0  0  0  0  0  0  0  0  0  0
   -4.0844   -3.2284   -5.2815 C   0  0  0  0  0  0  0  0  0  0  0  0
   -5.4595   -3.0707   -5.4499 C   0  0  0  0  0  0  0  0  0  0  0  0
   -5.7955   -1.9667   -6.3161 C   0  0  0  0  0  0  0  0  0  0  0  0
   -7.0850   -1.6176   -6.5180 N   0  0  0  0  0  0  0  0  0  0  0  0
   -7.9774   -2.3155   -5.8821 C   0  0  0  0  0  0  0  0  0  0  0  0
   -7.6554   -3.4000   -5.0099 C   0  0  0  0  0  0  0  0  0  0  0  0
   -8.7350   -4.1613   -4.3169 C   0  0  0  0  0  0  0  0  0  0  0  0
   -6.4166   -3.7666   -4.8060 N   0  0  0  0  0  0  0  0  0  0  0  0
   -4.6882   -1.3197   -6.8400 C   0  0  0  0  0  0  0  0  0  0  0  0
   -3.2339   -2.1325   -6.3211 S   0  0  0  0  0  0  0  0  0  0  0  0
   -4.4962    0.0641   -7.1954 C   0  0  0  0  0  0  0  0  0  0  0  0
   -3.6625    0.6417   -8.1363 C   0  0  0  0  0  0  0  0  0  0  0  0
   -3.1359    1.9230   -7.7275 C   0  0  0  0  0  0  0  0  0  0  0  0
   -2.2647    2.5934   -8.5042 N   0  0  0  0  0  0  0  0  0  0  0  0
   -1.9285    2.0210   -9.6226 C   0  0  0  0  0  0  0  0  0  0  0  0
   -2.4451    0.7556  -10.0423 C   0  0  0  0  0  0  0  0  0  0  0  0
   -2.0359    0.1767  -11.3539 C   0  0  0  0  0  0  0  0  0  0  0  0
   -3.2977    0.0887   -9.3128 N   0  0  0  0  0  0  0  0  0  0  0  0
   -3.5109    2.2805   -6.4345 C   0  0  0  0  0  0  0  0  0  0  0  0
   -4.6989    1.1589   -5.8416 S   0  0  0  0  0  0  0  0  0  0  0  0
   -2.7415    3.0230   -5.4965 C   0  0  0  0  0  0  0  0  0  0  0  0
   -2.6702    2.7015   -4.1657 C   0  0  0  0  0  0  0  0  0  0  0  0
   -1.5109    3.1829   -3.5246 C   0  0  0  0  0  0  0  0  0  0  0  0
   -1.0383    2.8259   -2.2468 C   0  0  0  0  0  0  0  0  0  0  0  0
   -1.7249    1.8205   -1.4274 C   0  0  0  0  0  0  0  0  0  0  0  0
   -2.1495    0.6186   -1.9943 C   0  0  0  0  0  0  0  0  0  0  0  0
   -2.7902   -0.3402   -1.2383 C   0  0  0  0  0  0  0  0  0  0  0  0
   -3.0162   -0.1436    0.1190 C   0  0  0  0  0  0  0  0  0  0  0  0
   -3.7792   -1.3398    1.1736 S   0  0  0  0  0  0  0  0  0  0  0  0
   -4.9718   -2.1548    0.0589 C   0  0  0  0  0  0  0  0  0  0  0  0
   -6.0252   -1.1953   -0.4572 C   0  0  0  0  0  0  0  0  0  0  0  0
   -2.5516    1.0428    0.6848 C   0  0  0  0  0  0  0  0  0  0  0  0
   -2.7288    1.2540    2.0018 F   0  0  0  0  0  0  0  0  0  0  0  0
   -1.9229    2.0159   -0.0627 C   0  0  0  0  0  0  0  0  0  0  0  0
    0.1765    3.3726   -1.8673 C   0  0  0  0  0  0  0  0  0  0  0  0
    0.9223    4.2406   -2.7041 C   0  0  0  0  0  0  0  0  0  0  0  0
    0.4542    4.5850   -3.9861 C   0  0  0  0  0  0  0  0  0  0  0  0
    1.2567    5.4643   -4.8452 C   0  0  0  0  0  0  0  0  0  0  0  0
    1.7484    6.6724   -4.3498 C   0  0  0  0  0  0  0  0  0  0  0  0
    2.5370    7.4864   -5.1337 C   0  0  0  0  0  0  0  0  0  0  0  0
    2.8778    7.1265   -6.4358 C   0  0  0  0  0  0  0  0  0  0  0  0
    3.9664    8.2058   -7.3209 S   0  0  0  0  0  0  0  0  0  0  0  0
    3.2582    8.2534   -9.0085 C   0  0  0  0  0  0  0  0  0  0  0  0
    1.8176    8.7231   -9.0039 C   0  0  0  0  0  0  0  0  0  0  0  0
    2.3841    5.9174   -6.9158 C   0  0  0  0  0  0  0  0  0  0  0  0
    1.5747    5.1028   -6.1496 C   0  0  0  0  0  0  0  0  0  0  0  0
    2.6990    5.4879   -8.1576 F   0  0  0  0  0  0  0  0  0  0  0  0
   -0.7417    4.0103   -4.3852 C   0  0  0  0  0  0  0  0  0  0  0  0
   -1.4551    4.1012   -5.9828 S   0  0  0  0  0  0  0  0  0  0  0  0
    2.1952    4.5264   -2.1552 C   0  0  0  0  0  0  0  0  0  0  0  0
    2.4328    3.9080   -0.9636 C   0  0  0  0  0  0  0  0  0  0  0  0
    1.0575    2.9787   -0.4130 S   0  0  0  0  0  0  0  0  0  0  0  0
    3.6747    3.8858   -0.2666 C   0  0  0  0  0  0  0  0  0  0  0  0
    4.0442    3.1273    0.8029 C   0  0  0  0  0  0  0  0  0  0  0  0
    5.4221    3.2378    1.1328 C   0  0  0  0  0  0  0  0  0  0  0  0
    6.1625    2.5373    2.1037 C   0  0  0  0  0  0  0  0  0  0  0  0
    5.5717    1.4726    2.9222 C   0  0  0  0  0  0  0  0  0  0  0  0
    4.7183    0.5258    2.3581 C   0  0  0  0  0  0  0  0  0  0  0  0
    4.2200   -0.5285    3.0991 C   0  0  0  0  0  0  0  0  0  0  0  0
    4.5689   -0.6875    4.4351 C   0  0  0  0  0  0  0  0  0  0  0  0
    4.0885   -2.0230    5.4758 S   0  0  0  0  0  0  0  0  0  0  0  0
    2.7450   -2.8460    4.5593 C   0  0  0  0  0  0  0  0  0  0  0  0
    3.2395   -3.9001    3.5862 C   0  0  0  0  0  0  0  0  0  0  0  0
    5.4069    0.2781    4.9954 C   0  0  0  0  0  0  0  0  0  0  0  0
    5.7498    0.1671    6.2928 F   0  0  0  0  0  0  0  0  0  0  0  0
    5.8963    1.3413    4.2730 C   0  0  0  0  0  0  0  0  0  0  0  0
    7.5158    2.8547    2.1986 C   0  0  0  0  0  0  0  0  0  0  0  0
    8.1597    3.7951    1.3575 C   0  0  0  0  0  0  0  0  0  0  0  0
    7.4287    4.4695    0.3730 C   0  0  0  0  0  0  0  0  0  0  0  0
    8.0282    5.3817   -0.6095 C   0  0  0  0  0  0  0  0  0  0  0  0
    9.0998    4.9841   -1.4069 C   0  0  0  0  0  0  0  0  0  0  0  0
    9.5384    5.7840   -2.4414 C   0  0  0  0  0  0  0  0  0  0  0  0
    8.9352    7.0103   -2.7114 C   0  0  0  0  0  0  0  0  0  0  0  0
    9.4869    7.9403   -4.1079 S   0  0  0  0  0  0  0  0  0  0  0  0
    7.8985    8.5763   -4.7890 C   0  0  0  0  0  0  0  0  0  0  0  0
    7.9926    8.6645   -6.2985 C   0  0  0  0  0  0  0  0  0  0  0  0
    7.9232    7.4319   -1.8536 C   0  0  0  0  0  0  0  0  0  0  0  0
    7.4598    6.6325   -0.8303 C   0  0  0  0  0  0  0  0  0  0  0  0
    7.3539    8.6473   -2.0067 F   0  0  0  0  0  0  0  0  0  0  0  0
    6.0755    4.1789    0.2993 C   0  0  0  0  0  0  0  0  0  0  0  0
    4.9975    4.8447   -0.8958 S   0  0  0  0  0  0  0  0  0  0  0  0
    9.5510    3.9114    1.6488 C   0  0  0  0  0  0  0  0  0  0  0  0
    9.9489    3.0823    2.6339 C   0  0  0  0  0  0  0  0  0  0  0  0
    8.6701    2.1165    3.2836 S   0  0  0  0  0  0  0  0  0  0  0  0
   -0.8960   -2.0713   11.6583 H   0  0  0  0  0  0  0  0  0  0  0  0
    0.1307   -0.8774    9.5874 H   0  0  0  0  0  0  0  0  0  0  0  0
    1.9674   -1.4333    8.1973 H   0  0  0  0  0  0  0  0  0  0  0  0
    3.3485    0.5280    7.7166 H   0  0  0  0  0  0  0  0  0  0  0  0
    1.7740    3.8546    4.4373 H   0  0  0  0  0  0  0  0  0  0  0  0
    2.8132    2.6499    3.6302 H   0  0  0  0  0  0  0  0  0  0  0  0
    3.7653    5.2837    4.8725 H   0  0  0  0  0  0  0  0  0  0  0  0
    4.8025    4.1026    4.0682 H   0  0  0  0  0  0  0  0  0  0  0  0
    3.5831    4.9808    3.1390 H   0  0  0  0  0  0  0  0  0  0  0  0
   -0.7817   -0.1765    5.1554 H   0  0  0  0  0  0  0  0  0  0  0  0
   -4.4777   -4.9281    6.4908 H   0  0  0  0  0  0  0  0  0  0  0  0
   -5.9376   -6.8181    6.9253 H   0  0  0  0  0  0  0  0  0  0  0  0
   -7.5716   -8.1136    7.9080 H   0  0  0  0  0  0  0  0  0  0  0  0
   -6.6755   -8.9912    6.6319 H   0  0  0  0  0  0  0  0  0  0  0  0
   -7.3746  -11.1582    7.6486 H   0  0  0  0  0  0  0  0  0  0  0  0
   -8.2572  -10.2933    8.9081 H   0  0  0  0  0  0  0  0  0  0  0  0
   -8.7920  -10.1889    7.2257 H   0  0  0  0  0  0  0  0  0  0  0  0
   -1.6201   -6.4741    9.2831 H   0  0  0  0  0  0  0  0  0  0  0  0
   -2.6895   -5.5952    4.9960 H   0  0  0  0  0  0  0  0  0  0  0  0
   -0.1739   -3.2908    1.6735 H   0  0  0  0  0  0  0  0  0  0  0  0
   -0.7285   -1.4233    0.5981 H   0  0  0  0  0  0  0  0  0  0  0  0
    1.1586    0.1216    0.4621 H   0  0  0  0  0  0  0  0  0  0  0  0
    4.7133   -0.8160   -2.8102 H   0  0  0  0  0  0  0  0  0  0  0  0
    5.6166    0.2298   -1.6986 H   0  0  0  0  0  0  0  0  0  0  0  0
    5.2466   -1.3889    0.1606 H   0  0  0  0  0  0  0  0  0  0  0  0
    4.3100   -2.4338   -0.9161 H   0  0  0  0  0  0  0  0  0  0  0  0
    6.0339   -2.1928   -1.2021 H   0  0  0  0  0  0  0  0  0  0  0  0
    0.7724   -3.5083   -2.8338 H   0  0  0  0  0  0  0  0  0  0  0  0
   -6.1181   -4.5202   -1.5145 H   0  0  0  0  0  0  0  0  0  0  0  0
   -8.1674   -5.8341   -1.1924 H   0  0  0  0  0  0  0  0  0  0  0  0
   -9.3538  -10.5263   -0.2171 H   0  0  0  0  0  0  0  0  0  0  0  0
   -7.7349  -10.4093    0.4968 H   0  0  0  0  0  0  0  0  0  0  0  0
   -6.8007   -9.8001   -1.7558 H   0  0  0  0  0  0  0  0  0  0  0  0
   -8.4223   -9.8943   -2.4509 H   0  0  0  0  0  0  0  0  0  0  0  0
   -7.6361  -11.3528   -1.8312 H   0  0  0  0  0  0  0  0  0  0  0  0
   -3.8785   -7.6323    0.4005 H   0  0  0  0  0  0  0  0  0  0  0  0
   -4.8941   -5.1332   -3.3576 H   0  0  0  0  0  0  0  0  0  0  0  0
   -9.0110   -2.0468   -6.0552 H   0  0  0  0  0  0  0  0  0  0  0  0
   -9.4352   -4.5675   -5.0451 H   0  0  0  0  0  0  0  0  0  0  0  0
   -9.2907   -3.5018   -3.6511 H   0  0  0  0  0  0  0  0  0  0  0  0
   -8.2994   -4.9738   -3.7422 H   0  0  0  0  0  0  0  0  0  0  0  0
   -1.2418    2.5667  -10.2555 H   0  0  0  0  0  0  0  0  0  0  0  0
   -0.9573    0.0279  -11.3766 H   0  0  0  0  0  0  0  0  0  0  0  0
   -2.5371   -0.7747  -11.5058 H   0  0  0  0  0  0  0  0  0  0  0  0
   -2.2979    0.8577  -12.1623 H   0  0  0  0  0  0  0  0  0  0  0  0
   -3.3975    2.0705   -3.6885 H   0  0  0  0  0  0  0  0  0  0  0  0
   -1.9461    0.4129   -3.0340 H   0  0  0  0  0  0  0  0  0  0  0  0
   -3.1016   -1.2578   -1.7103 H   0  0  0  0  0  0  0  0  0  0  0  0
   -4.4223   -2.6304   -0.7515 H   0  0  0  0  0  0  0  0  0  0  0  0
   -5.4157   -2.9320    0.6814 H   0  0  0  0  0  0  0  0  0  0  0  0
   -6.5546   -0.7310    0.3716 H   0  0  0  0  0  0  0  0  0  0  0  0
   -5.5711   -0.4115   -1.0610 H   0  0  0  0  0  0  0  0  0  0  0  0
   -6.7436   -1.7331   -1.0733 H   0  0  0  0  0  0  0  0  0  0  0  0
   -1.6102    2.9261    0.4239 H   0  0  0  0  0  0  0  0  0  0  0  0
    1.4896    6.9824   -3.3489 H   0  0  0  0  0  0  0  0  0  0  0  0
    2.9121    8.4212   -4.7468 H   0  0  0  0  0  0  0  0  0  0  0  0
    3.9025    8.9610   -9.5305 H   0  0  0  0  0  0  0  0  0  0  0  0
    3.3663    7.2719   -9.4646 H   0  0  0  0  0  0  0  0  0  0  0  0
    1.4598    8.8150  -10.0274 H   0  0  0  0  0  0  0  0  0  0  0  0
    1.7330    9.6918   -8.5155 H   0  0  0  0  0  0  0  0  0  0  0  0
    1.1792    8.0142   -8.4795 H   0  0  0  0  0  0  0  0  0  0  0  0
    1.2336    4.1705   -6.5710 H   0  0  0  0  0  0  0  0  0  0  0  0
    2.9399    5.1195   -2.6553 H   0  0  0  0  0  0  0  0  0  0  0  0
    3.3412    2.5035    1.3224 H   0  0  0  0  0  0  0  0  0  0  0  0
    4.4648    0.5930    1.3115 H   0  0  0  0  0  0  0  0  0  0  0  0
    3.5654   -1.2362    2.6161 H   0  0  0  0  0  0  0  0  0  0  0  0
    2.1514   -2.0727    4.0747 H   0  0  0  0  0  0  0  0  0  0  0  0
    2.1404   -3.3053    5.3413 H   0  0  0  0  0  0  0  0  0  0  0  0
    2.3899   -4.3681    3.0914 H   0  0  0  0  0  0  0  0  0  0  0  0
    3.7984   -4.6671    4.1168 H   0  0  0  0  0  0  0  0  0  0  0  0
    3.8904   -3.4693    2.8288 H   0  0  0  0  0  0  0  0  0  0  0  0
    6.5109    2.0669    4.7808 H   0  0  0  0  0  0  0  0  0  0  0  0
    9.5559    4.0191   -1.2451 H   0  0  0  0  0  0  0  0  0  0  0  0
   10.3442    5.4587   -3.0807 H   0  0  0  0  0  0  0  0  0  0  0  0
    7.7040    9.5519   -4.3458 H   0  0  0  0  0  0  0  0  0  0  0  0
    7.1217    7.8744   -4.4902 H   0  0  0  0  0  0  0  0  0  0  0  0
    8.2213    7.6898   -6.7233 H   0  0  0  0  0  0  0  0  0  0  0  0
    8.7716    9.3629   -6.5952 H   0  0  0  0  0  0  0  0  0  0  0  0
    7.0402    9.0042   -6.7007 H   0  0  0  0  0  0  0  0  0  0  0  0
    6.6645    7.0024   -0.2021 H   0  0  0  0  0  0  0  0  0  0  0  0
   10.2026    4.5975    1.1388 H   0  0  0  0  0  0  0  0  0  0  0  0
   10.9324    2.9704    3.0468 H   0  0  0  0  0  0  0  0  0  0  0  0
  1  2  2  0  0  0  0
  2  3  1  0  0  0  0
  3  4  2  0  0  0  0
  4  5  1  0  0  0  0
  5  6  2  0  0  0  0
  6  7  1  0  0  0  0
  7  8  2  0  0  0  0
  8  9  1  0  0  0  0
  9 10  1  0  0  0  0
 10 11  1  0  0  0  0
  8 12  1  0  0  0  0
 12 13  1  0  0  0  0
 12 14  2  0  0  0  0
  4 15  1  0  0  0  0
 15 16  2  0  0  0  0
 16 17  1  0  0  0  0
 17 18  1  0  0  0  0
 18 19  2  0  0  0  0
 19 20  1  0  0  0  0
 20 21  2  0  0  0  0
 21 22  1  0  0  0  0
 22 23  1  0  0  0  0
 23 24  1  0  0  0  0
 21 25  1  0  0  0  0
 25 26  2  0  0  0  0
 25 27  1  0  0  0  0
 17 28  2  0  0  0  0
 28 29  1  0  0  0  0
 16 30  1  0  0  0  0
 30 31  2  0  0  0  0
 31 32  1  0  0  0  0
 31 33  1  0  0  0  0
 33 34  2  0  0  0  0
 34 35  1  0  0  0  0
 35 36  2  0  0  0  0
 36 37  1  0  0  0  0
 37 38  2  0  0  0  0
 38 39  1  0  0  0  0
 39 40  2  0  0  0  0
 40 41  1  0  0  0  0
 41 42  1  0  0  0  0
 42 43  1  0  0  0  0
 40 44  1  0  0  0  0
 44 45  1  0  0  0  0
 44 46  2  0  0  0  0
 36 47  1  0  0  0  0
 47 48  2  0  0  0  0
 48 49  1  0  0  0  0
 49 50  1  0  0  0  0
 50 51  2  0  0  0  0
 51 52  1  0  0  0  0
 52 53  2  0  0  0  0
 53 54  1  0  0  0  0
 54 55  1  0  0  0  0
 55 56  1  0  0  0  0
 53 57  1  0  0  0  0
 57 58  2  0  0  0  0
 57 59  1  0  0  0  0
 49 60  2  0  0  0  0
 60 61  1  0  0  0  0
 48 62  1  0  0  0  0
 62 63  2  0  0  0  0
 63 64  1  0  0  0  0
 63 65  1  0  0  0  0
 65 66  2  0  0  0  0
 66 67  1  0  0  0  0
 67 68  1  0  0  0  0
 68 69  2  0  0  0  0
 69 70  1  0  0  0  0
 70 71  1  0  0  0  0
 70 72  2  0  0  0  0
 67 73  2  0  0  0  0
 73 74  1  0  0  0  0
 73 75  1  0  0  0  0
 75 76  2  0  0  0  0
 76 77  1  0  0  0  0
 77 78  1  0  0  0  0
 78 79  2  0  0  0  0
 79 80  1  0  0  0  0
 80 81  1  0  0  0  0
 80 82  2  0  0  0  0
 77 83  2  0  0  0  0
 83 84  1  0  0  0  0
 83 85  1  0  0  0  0
 85 86  2  0  0  0  0
 86 87  1  0  0  0  0
 87 88  2  0  0  0  0
 88 89  1  0  0  0  0
 89 90  2  0  0  0  0
 90 91  1  0  0  0  0
 91 92  2  0  0  0  0
 92 93  1  0  0  0  0
 93 94  1  0  0  0  0
 94 95  1  0  0  0  0
 92 96  1  0  0  0  0
 96 97  1  0  0  0  0
 96 98  2  0  0  0  0
 88 99  1  0  0  0  0
 99100  2  0  0  0  0
100101  1  0  0  0  0
101102  1  0  0  0  0
102103  2  0  0  0  0
103104  1  0  0  0  0
104105  2  0  0  0  0
105106  1  0  0  0  0
106107  1  0  0  0  0
107108  1  0  0  0  0
105109  1  0  0  0  0
109110  2  0  0  0  0
109111  1  0  0  0  0
101112  2  0  0  0  0
112113  1  0  0  0  0
100114  1  0  0  0  0
114115  2  0  0  0  0
115116  1  0  0  0  0
115117  1  0  0  0  0
117118  2  0  0  0  0
118119  1  0  0  0  0
119120  2  0  0  0  0
120121  1  0  0  0  0
121122  2  0  0  0  0
122123  1  0  0  0  0
123124  2  0  0  0  0
124125  1  0  0  0  0
125126  1  0  0  0  0
126127  1  0  0  0  0
124128  1  0  0  0  0
128129  1  0  0  0  0
128130  2  0  0  0  0
120131  1  0  0  0  0
131132  2  0  0  0  0
132133  1  0  0  0  0
133134  1  0  0  0  0
134135  2  0  0  0  0
135136  1  0  0  0  0
136137  2  0  0  0  0
137138  1  0  0  0  0
138139  1  0  0  0  0
139140  1  0  0  0  0
137141  1  0  0  0  0
141142  2  0  0  0  0
141143  1  0  0  0  0
133144  2  0  0  0  0
144145  1  0  0  0  0
132146  1  0  0  0  0
146147  2  0  0  0  0
147148  1  0  0  0  0
 29  1  1  0  0  0  0
 61 33  1  0  0  0  0
 74 65  1  0  0  0  0
 84 75  1  0  0  0  0
113 85  1  0  0  0  0
145117  1  0  0  0  0
 28  3  1  0  0  0  0
 60 35  1  0  0  0  0
 72 66  1  0  0  0  0
 82 76  1  0  0  0  0
112 87  1  0  0  0  0
144119  1  0  0  0  0
 14  5  1  0  0  0  0
 32 15  1  0  0  0  0
 46 37  1  0  0  0  0
 64 47  1  0  0  0  0
 98 89  1  0  0  0  0
116 99  1  0  0  0  0
130121  1  0  0  0  0
148131  1  0  0  0  0
 26 18  1  0  0  0  0
 58 50  1  0  0  0  0
110102  1  0  0  0  0
142134  1  0  0  0  0
  1149  1  0  0  0  0
  2150  1  0  0  0  0
  6151  1  0  0  0  0
  7152  1  0  0  0  0
 10153  1  0  0  0  0
 10154  1  0  0  0  0
 11155  1  0  0  0  0
 11156  1  0  0  0  0
 11157  1  0  0  0  0
 14158  1  0  0  0  0
 19159  1  0  0  0  0
 20160  1  0  0  0  0
 23161  1  0  0  0  0
 23162  1  0  0  0  0
 24163  1  0  0  0  0
 24164  1  0  0  0  0
 24165  1  0  0  0  0
 26166  1  0  0  0  0
 30167  1  0  0  0  0
 34168  1  0  0  0  0
 38169  1  0  0  0  0
 39170  1  0  0  0  0
 42171  1  0  0  0  0
 42172  1  0  0  0  0
 43173  1  0  0  0  0
 43174  1  0  0  0  0
 43175  1  0  0  0  0
 46176  1  0  0  0  0
 51177  1  0  0  0  0
 52178  1  0  0  0  0
 55179  1  0  0  0  0
 55180  1  0  0  0  0
 56181  1  0  0  0  0
 56182  1  0  0  0  0
 56183  1  0  0  0  0
 58184  1  0  0  0  0
 62185  1  0  0  0  0
 69186  1  0  0  0  0
 71187  1  0  0  0  0
 71188  1  0  0  0  0
 71189  1  0  0  0  0
 79190  1  0  0  0  0
 81191  1  0  0  0  0
 81192  1  0  0  0  0
 81193  1  0  0  0  0
 86194  1  0  0  0  0
 90195  1  0  0  0  0
 91196  1  0  0  0  0
 94197  1  0  0  0  0
 94198  1  0  0  0  0
 95199  1  0  0  0  0
 95200  1  0  0  0  0
 95201  1  0  0  0  0
 98202  1  0  0  0  0
103203  1  0  0  0  0
104204  1  0  0  0  0
107205  1  0  0  0  0
107206  1  0  0  0  0
108207  1  0  0  0  0
108208  1  0  0  0  0
108209  1  0  0  0  0
110210  1  0  0  0  0
114211  1  0  0  0  0
118212  1  0  0  0  0
122213  1  0  0  0  0
123214  1  0  0  0  0
126215  1  0  0  0  0
126216  1  0  0  0  0
127217  1  0  0  0  0
127218  1  0  0  0  0
127219  1  0  0  0  0
130220  1  0  0  0  0
135221  1  0  0  0  0
136222  1  0  0  0  0
139223  1  0  0  0  0
139224  1  0  0  0  0
140225  1  0  0  0  0
140226  1  0  0  0  0
140227  1  0  0  0  0
142228  1  0  0  0  0
146229  1  0  0  0  0
147230  1  0  0  0  0
M  END
