138

C          7.13030        3.14270       11.85960
C          7.35880        2.59020       10.61830
C          6.15010        2.15010        9.98100
C          6.24320        1.52580        8.72030
C          7.46200        1.38420        8.12170
C          8.64400        1.84880        8.73730
C          8.60450        2.43390        9.96560
C          5.01120        2.38390       10.76970
S          5.47790        3.13250       12.27130
C          3.64680        2.16800       10.46060
C          2.53400        2.09330       11.31910
C          1.29290        1.95960       10.61950
C          0.10120        1.74740       11.34310
C          0.13430        1.73330       12.70750
C          1.34750        1.90400       13.39990
C          2.52580        2.06560       12.72830
C          1.44770        1.96030        9.22760
S          3.12910        2.04110        8.80820
C          0.48190        1.88220        8.19500
C         -0.78720        2.47130        8.10360
C         -1.46190        2.15460        6.88130
C         -2.75610        2.66970        6.66080
C         -3.32040        3.50030        7.58560
C         -2.62120        3.87530        8.74900
C         -1.37760        3.37660        9.00950
C         -0.69440        1.35160        6.02730
S          0.84550        0.99690        6.75000
C         -0.94800        0.85090        4.72690
C         -0.13710       -0.01060        4.03230
C         -0.57940       -0.29530        2.72350
C          0.01150       -1.14420        1.76800
C          1.23800       -1.86950        2.04890
S          2.65600       -1.05680        2.64740
C          3.58630       -2.51560        2.66100
C          5.02050       -2.51420        3.06050
C          5.92070       -2.18260        1.86790
C          2.83210       -3.56000        2.21770
Cl         3.41090       -5.17030        2.09210
C          1.50140       -3.20030        1.87360
Cl         0.33910       -4.35890        1.38000
C         -0.61340       -1.23030        0.53000
C         -1.80550       -0.53120        0.21780
C         -2.43720        0.25690        1.19940
C         -3.70250        0.91430        0.92550
S         -3.94210        2.60760        1.23950
C         -5.57330        2.56360        0.66530
C         -6.40760        3.79520        0.59880
C         -6.28090        4.46640       -0.77110
C         -5.89840        1.30470        0.25590
C         -4.84380        0.36580        0.40630
Cl        -5.03670       -1.30170        0.04200
Cl        -7.43480        0.87340       -0.37670
C         -1.78990        0.37560        2.41870
S         -2.34270        1.32400        3.77000
C         -2.17120       -0.68620       -1.13870
C         -1.31900       -1.48610       -1.84590
S         -0.01110       -2.09250       -0.85550
C         -1.39920       -1.81800       -3.23110
C         -2.30330       -1.34670       -4.13980
C         -2.09650       -1.83720       -5.45050
C         -2.82030       -1.53020       -6.61780
C         -3.93490       -0.59700       -6.59120
S         -3.75600        1.00400       -5.93300
C         -5.40000        1.41850       -6.27890
C         -5.93290        2.77700       -5.98370
C         -5.64070        3.74090       -7.13600
C         -6.03430        0.37140       -6.87700
Cl        -7.67760        0.40430       -7.36810
C         -5.21010       -0.77350       -7.05160
Cl        -5.81100       -2.24310       -7.69530
C         -2.41120       -2.14480       -7.79280
C         -1.33150       -3.06200       -7.84930
C         -0.60270       -3.35850       -6.68520
C          0.54010       -4.25600       -6.71900
S          0.65000       -5.61790       -5.64510
C          2.17600       -6.10830       -6.29760
C          2.90360       -7.28180       -5.74110
C          3.58500       -6.92290       -4.41870
C          2.56950       -5.25010       -7.28040
C          1.64250       -4.20180       -7.52530
Cl         1.94200       -2.95220       -8.66410
Cl         4.03640       -5.40240       -8.15930
C         -1.00930       -2.74200       -5.50980
S         -0.25050       -2.92310       -3.95450
C         -1.13710       -3.57630       -9.15400
C         -1.97660       -3.03850      -10.08720
S         -3.09240       -1.88590       -9.37070
C         -2.05660       -3.31110      -11.48330
C         -1.07630       -3.79050      -12.35490
C         -1.58180       -3.96920      -13.68760
C         -0.72900       -4.45600      -14.70720
C          0.57190       -4.72610      -14.41340
C          1.08300       -4.50710      -13.11400
C          0.28950       -4.04950      -12.10420
C         -2.90850       -3.61000      -13.79780
S         -3.55130       -3.05810      -12.32210
H          7.84710        3.54700       12.54570
H          5.35710        1.14920        8.23500
H          7.53140        0.90380        7.15730
H          9.58540        1.72320        8.22360
H          9.50060        2.77980       10.45840
H         -0.81870        1.56930       10.80860
H         -0.77340        1.56860       13.26820
H          1.34450        1.87770       14.47910
H          3.45120        2.14410       13.27490
H         -3.28980        2.41090        5.76090
H         -4.31080        3.89620        7.41860
H         -3.07880        4.57030        9.43690
H         -0.83110        3.68240        9.88780
H          0.75720       -0.42440        4.46170
H          5.17510       -1.77640        3.84970
H          5.27670       -3.50220        3.44770
H          6.96320       -2.18640        2.17450
H          5.78620       -2.91820        1.07910
H          5.67570       -1.19980        1.47220
H         -7.45050        3.52390        0.77460
H         -6.08890        4.48950        1.37740
H         -5.24770        4.74830       -0.95880
H         -6.89940        5.35890       -0.80810
H         -6.60440        3.78520       -1.55390
H         -3.02190       -0.20220       -1.57960
H         -3.09130       -0.66500       -3.88150
H         -5.47450        3.15530       -5.06820
H         -7.01160        2.70430       -5.83270
H         -4.56810        3.82590       -7.29350
H         -6.04020        4.72580       -6.90980
H         -6.09910        3.38040       -8.05320
H          3.65150       -7.60700       -6.46640
H          2.19960       -8.09940       -5.57420
H          2.84640       -6.59220       -3.69240
H          4.30500       -6.12240       -4.57020
H          4.10540       -7.78920       -4.01940
H         -0.43480       -4.35710       -9.37440
H         -1.12660       -4.59650      -15.70110
H          1.23690       -5.09740      -15.17900
H          2.12850       -4.70240      -12.92760
H          0.70220       -3.85930      -11.12740
H         -3.52860       -3.64790      -14.67120
