
  xtb     03012203073D
 energy: -321.731665098691 gnorm: 0.000567741262 xtb: 6.4.1 (unknown)
167187  0     0  0            999 V2000
    2.9224  -11.1926   12.2165 C   0  0  0  0  0  0  0  0  0  0  0  0
    2.2345  -10.0416   12.3602 C   0  0  0  0  0  0  0  0  0  0  0  0
    1.9179   -9.4277   11.1132 C   0  0  0  0  0  0  0  0  0  0  0  0
    1.2398   -8.2211   10.8836 C   0  0  0  0  0  0  0  0  0  0  0  0
    0.7593   -7.3890   11.9760 C   0  0  0  0  0  0  0  0  0  0  0  0
    1.8344   -6.8353   13.2261 S   0  0  0  0  0  0  0  0  0  0  0  0
    0.5858   -5.9280   14.0094 C   0  0  0  0  0  0  0  0  0  0  0  0
    0.8718   -5.1045   15.2162 C   0  0  0  0  0  0  0  0  0  0  0  0
    1.4367   -3.7373   14.8236 C   0  0  0  0  0  0  0  0  0  0  0  0
   -0.5871   -6.0540   13.3277 C   0  0  0  0  0  0  0  0  0  0  0  0
   -2.0538   -5.2994   13.8000 Cl  0  0  0  0  0  0  0  0  0  0  0  0
   -0.4943   -6.8825   12.1766 C   0  0  0  0  0  0  0  0  0  0  0  0
   -1.8538   -7.2567   11.2027 Cl  0  0  0  0  0  0  0  0  0  0  0  0
    1.0809   -7.8277    9.5604 C   0  0  0  0  0  0  0  0  0  0  0  0
    1.5652   -8.5871    8.4668 C   0  0  0  0  0  0  0  0  0  0  0  0
    2.2135   -9.8122    8.6954 C   0  0  0  0  0  0  0  0  0  0  0  0
    2.7004  -10.6288    7.5952 C   0  0  0  0  0  0  0  0  0  0  0  0
    3.7686   -9.9819    6.3835 S   0  0  0  0  0  0  0  0  0  0  0  0
    3.8553  -11.4899    5.5385 C   0  0  0  0  0  0  0  0  0  0  0  0
    4.7073  -11.6522    4.3284 C   0  0  0  0  0  0  0  0  0  0  0  0
    6.1419  -12.0209    4.7136 C   0  0  0  0  0  0  0  0  0  0  0  0
    3.1029  -12.4310    6.1747 C   0  0  0  0  0  0  0  0  0  0  0  0
    2.4438  -11.9467    7.3369 C   0  0  0  0  0  0  0  0  0  0  0  0
    1.3669  -12.9172    8.2501 Cl  0  0  0  0  0  0  0  0  0  0  0  0
    2.9399  -14.0503    5.6328 Cl  0  0  0  0  0  0  0  0  0  0  0  0
    2.3810  -10.1991   10.0202 C   0  0  0  0  0  0  0  0  0  0  0  0
    3.2223  -11.6204   10.5690 S   0  0  0  0  0  0  0  0  0  0  0  0
    1.3066   -7.9511    7.2276 C   0  0  0  0  0  0  0  0  0  0  0  0
    0.6754   -6.7489    7.3560 C   0  0  0  0  0  0  0  0  0  0  0  0
    0.3432   -6.3475    9.0245 S   0  0  0  0  0  0  0  0  0  0  0  0
    0.3127   -5.8465    6.3094 C   0  0  0  0  0  0  0  0  0  0  0  0
    0.7970   -5.8301    5.0337 C   0  0  0  0  0  0  0  0  0  0  0  0
    0.2710   -4.7798    4.2447 C   0  0  0  0  0  0  0  0  0  0  0  0
    0.5515   -4.4786    2.8980 C   0  0  0  0  0  0  0  0  0  0  0  0
    1.5053   -5.2585    2.1276 C   0  0  0  0  0  0  0  0  0  0  0  0
    3.1157   -5.5516    2.7191 S   0  0  0  0  0  0  0  0  0  0  0  0
    3.5634   -6.4366    1.3010 C   0  0  0  0  0  0  0  0  0  0  0  0
    4.9424   -6.9710    1.1299 C   0  0  0  0  0  0  0  0  0  0  0  0
    5.8779   -5.8974    0.5689 C   0  0  0  0  0  0  0  0  0  0  0  0
    2.5195   -6.4860    0.4269 C   0  0  0  0  0  0  0  0  0  0  0  0
    2.5826   -7.2798   -1.0930 Cl  0  0  0  0  0  0  0  0  0  0  0  0
    1.3512   -5.8236    0.8918 C   0  0  0  0  0  0  0  0  0  0  0  0
   -0.1158   -5.8295    0.0070 Cl  0  0  0  0  0  0  0  0  0  0  0  0
   -0.0990   -3.3824    2.3509 C   0  0  0  0  0  0  0  0  0  0  0  0
   -1.0370   -2.5985    3.0700 C   0  0  0  0  0  0  0  0  0  0  0  0
   -1.3601   -2.9362    4.3974 C   0  0  0  0  0  0  0  0  0  0  0  0
   -2.3787   -2.2128    5.1366 C   0  0  0  0  0  0  0  0  0  0  0  0
   -2.0837   -1.6036    6.7383 S   0  0  0  0  0  0  0  0  0  0  0  0
   -3.6886   -0.9734    6.8796 C   0  0  0  0  0  0  0  0  0  0  0  0
   -4.1523   -0.3257    8.1371 C   0  0  0  0  0  0  0  0  0  0  0  0
   -4.6069   -1.3783    9.1514 C   0  0  0  0  0  0  0  0  0  0  0  0
   -4.4022   -1.2349    5.7481 C   0  0  0  0  0  0  0  0  0  0  0  0
   -3.6633   -1.9331    4.7561 C   0  0  0  0  0  0  0  0  0  0  0  0
   -4.3679   -2.4437    3.2753 Cl  0  0  0  0  0  0  0  0  0  0  0  0
   -6.0395   -0.7728    5.5200 Cl  0  0  0  0  0  0  0  0  0  0  0  0
   -0.6663   -3.9984    4.9628 C   0  0  0  0  0  0  0  0  0  0  0  0
   -0.8488   -4.5708    6.5957 S   0  0  0  0  0  0  0  0  0  0  0  0
   -1.4970   -1.4931    2.3203 C   0  0  0  0  0  0  0  0  0  0  0  0
   -0.9546   -1.4090    1.0653 C   0  0  0  0  0  0  0  0  0  0  0  0
    0.1663   -2.7320    0.7624 S   0  0  0  0  0  0  0  0  0  0  0  0
   -1.1837   -0.4771    0.0218 C   0  0  0  0  0  0  0  0  0  0  0  0
   -1.8000    0.7833    0.0192 C   0  0  0  0  0  0  0  0  0  0  0  0
   -1.8643    1.3656   -1.2863 C   0  0  0  0  0  0  0  0  0  0  0  0
   -2.5165    2.6015   -1.4538 C   0  0  0  0  0  0  0  0  0  0  0  0
   -3.0276    3.2569   -0.3687 C   0  0  0  0  0  0  0  0  0  0  0  0
   -2.8945    2.7214    0.9234 C   0  0  0  0  0  0  0  0  0  0  0  0
   -2.2989    1.5082    1.1203 C   0  0  0  0  0  0  0  0  0  0  0  0
   -1.2717    0.5617   -2.2841 C   0  0  0  0  0  0  0  0  0  0  0  0
   -0.6701   -0.9035   -1.5759 S   0  0  0  0  0  0  0  0  0  0  0  0
   -1.0713    0.8359   -3.6524 C   0  0  0  0  0  0  0  0  0  0  0  0
   -0.7652   -0.0509   -4.7066 C   0  0  0  0  0  0  0  0  0  0  0  0
   -0.5452    0.6133   -5.9531 C   0  0  0  0  0  0  0  0  0  0  0  0
   -0.3681   -0.1447   -7.1281 C   0  0  0  0  0  0  0  0  0  0  0  0
   -0.3389   -1.5081   -7.0536 C   0  0  0  0  0  0  0  0  0  0  0  0
   -0.5066   -2.1636   -5.8214 C   0  0  0  0  0  0  0  0  0  0  0  0
   -0.7316   -1.4581   -4.6722 C   0  0  0  0  0  0  0  0  0  0  0  0
   -0.6403    2.0095   -5.8537 C   0  0  0  0  0  0  0  0  0  0  0  0
   -1.0957    2.4702   -4.2459 S   0  0  0  0  0  0  0  0  0  0  0  0
   -0.4635    3.0123   -6.8353 C   0  0  0  0  0  0  0  0  0  0  0  0
    0.4478    3.0795   -7.9007 C   0  0  0  0  0  0  0  0  0  0  0  0
    0.2847    4.2552   -8.7012 C   0  0  0  0  0  0  0  0  0  0  0  0
    1.0863    4.4062   -9.8529 C   0  0  0  0  0  0  0  0  0  0  0  0
    2.0636    3.4928  -10.1253 C   0  0  0  0  0  0  0  0  0  0  0  0
    2.3041    2.4065   -9.2625 C   0  0  0  0  0  0  0  0  0  0  0  0
    1.5098    2.1928   -8.1732 C   0  0  0  0  0  0  0  0  0  0  0  0
   -0.7037    5.1159   -8.2018 C   0  0  0  0  0  0  0  0  0  0  0  0
   -1.4429    4.4408   -6.7873 S   0  0  0  0  0  0  0  0  0  0  0  0
   -1.1275    6.3991   -8.6377 C   0  0  0  0  0  0  0  0  0  0  0  0
   -0.5306    7.2782   -9.4993 C   0  0  0  0  0  0  0  0  0  0  0  0
   -1.2387    8.4924   -9.6621 C   0  0  0  0  0  0  0  0  0  0  0  0
   -0.8947    9.5944  -10.4647 C   0  0  0  0  0  0  0  0  0  0  0  0
    0.3208    9.5928  -11.2627 C   0  0  0  0  0  0  0  0  0  0  0  0
    1.8744    9.2928  -10.5378 S   0  0  0  0  0  0  0  0  0  0  0  0
    2.7023    9.4591  -12.0487 C   0  0  0  0  0  0  0  0  0  0  0  0
    4.1718    9.2412  -12.1465 C   0  0  0  0  0  0  0  0  0  0  0  0
    4.4984    7.7464  -12.1975 C   0  0  0  0  0  0  0  0  0  0  0  0
    1.8137    9.7262  -13.0462 C   0  0  0  0  0  0  0  0  0  0  0  0
    2.2563    9.9457  -14.6895 Cl  0  0  0  0  0  0  0  0  0  0  0  0
    0.4649    9.8088  -12.6046 C   0  0  0  0  0  0  0  0  0  0  0  0
   -0.8391   10.0631  -13.6868 Cl  0  0  0  0  0  0  0  0  0  0  0  0
   -1.7641   10.6791  -10.4546 C   0  0  0  0  0  0  0  0  0  0  0  0
   -2.9506   10.7080   -9.6833 C   0  0  0  0  0  0  0  0  0  0  0  0
   -3.2838    9.6145   -8.8684 C   0  0  0  0  0  0  0  0  0  0  0  0
   -4.4544    9.6371   -8.0057 C   0  0  0  0  0  0  0  0  0  0  0  0
   -5.6426    8.3702   -8.0492 S   0  0  0  0  0  0  0  0  0  0  0  0
   -6.5831    9.1039   -6.7960 C   0  0  0  0  0  0  0  0  0  0  0  0
   -7.8090    8.4451   -6.2674 C   0  0  0  0  0  0  0  0  0  0  0  0
   -7.4472    7.4089   -5.2005 C   0  0  0  0  0  0  0  0  0  0  0  0
   -5.9916   10.2559   -6.3710 C   0  0  0  0  0  0  0  0  0  0  0  0
   -4.7871   10.5645   -7.0582 C   0  0  0  0  0  0  0  0  0  0  0  0
   -3.8198   11.9269   -6.6633 Cl  0  0  0  0  0  0  0  0  0  0  0  0
   -6.6248   11.2557   -5.1281 Cl  0  0  0  0  0  0  0  0  0  0  0  0
   -2.4278    8.5234   -8.8945 C   0  0  0  0  0  0  0  0  0  0  0  0
   -2.6216    7.0584   -7.9783 S   0  0  0  0  0  0  0  0  0  0  0  0
   -3.6681   11.9253   -9.8678 C   0  0  0  0  0  0  0  0  0  0  0  0
   -3.0374   12.7836  -10.6948 C   0  0  0  0  0  0  0  0  0  0  0  0
   -1.5460   12.1730  -11.3213 S   0  0  0  0  0  0  0  0  0  0  0  0
    3.2826  -11.8448   12.9879 H   0  0  0  0  0  0  0  0  0  0  0  0
    1.9545   -9.6294   13.3118 H   0  0  0  0  0  0  0  0  0  0  0  0
   -0.0559   -4.9705   15.7755 H   0  0  0  0  0  0  0  0  0  0  0  0
    1.5915   -5.6261   15.8496 H   0  0  0  0  0  0  0  0  0  0  0  0
    1.6352   -3.1462   15.7135 H   0  0  0  0  0  0  0  0  0  0  0  0
    2.3645   -3.8575   14.2693 H   0  0  0  0  0  0  0  0  0  0  0  0
    0.7261   -3.2013   14.1997 H   0  0  0  0  0  0  0  0  0  0  0  0
    4.7102  -10.7208    3.7595 H   0  0  0  0  0  0  0  0  0  0  0  0
    4.2826  -12.4422    3.7060 H   0  0  0  0  0  0  0  0  0  0  0  0
    6.7486  -12.1427    3.8204 H   0  0  0  0  0  0  0  0  0  0  0  0
    6.1531  -12.9531    5.2724 H   0  0  0  0  0  0  0  0  0  0  0  0
    6.5796  -11.2400    5.3309 H   0  0  0  0  0  0  0  0  0  0  0  0
    1.5682   -8.3750    6.2766 H   0  0  0  0  0  0  0  0  0  0  0  0
    1.5239   -6.5356    4.6776 H   0  0  0  0  0  0  0  0  0  0  0  0
    5.3204   -7.3131    2.0951 H   0  0  0  0  0  0  0  0  0  0  0  0
    4.9066   -7.8197    0.4443 H   0  0  0  0  0  0  0  0  0  0  0  0
    5.5195   -5.5538   -0.3980 H   0  0  0  0  0  0  0  0  0  0  0  0
    5.9235   -5.0470    1.2451 H   0  0  0  0  0  0  0  0  0  0  0  0
    6.8794   -6.3009    0.4467 H   0  0  0  0  0  0  0  0  0  0  0  0
   -3.3383    0.2621    8.5646 H   0  0  0  0  0  0  0  0  0  0  0  0
   -4.9835    0.3419    7.9033 H   0  0  0  0  0  0  0  0  0  0  0  0
   -5.4288   -1.9625    8.7453 H   0  0  0  0  0  0  0  0  0  0  0  0
   -4.9409   -0.8958   10.0660 H   0  0  0  0  0  0  0  0  0  0  0  0
   -3.7867   -2.0514    9.3894 H   0  0  0  0  0  0  0  0  0  0  0  0
   -2.2208   -0.8011    2.7024 H   0  0  0  0  0  0  0  0  0  0  0  0
   -2.6251    3.0275   -2.4377 H   0  0  0  0  0  0  0  0  0  0  0  0
   -3.5317    4.2021   -0.5002 H   0  0  0  0  0  0  0  0  0  0  0  0
   -3.2765    3.2767    1.7668 H   0  0  0  0  0  0  0  0  0  0  0  0
   -2.1947    1.1127    2.1162 H   0  0  0  0  0  0  0  0  0  0  0  0
   -0.2880    0.3597   -8.0781 H   0  0  0  0  0  0  0  0  0  0  0  0
   -0.2066   -2.0949   -7.9500 H   0  0  0  0  0  0  0  0  0  0  0  0
   -0.4856   -3.2424   -5.7918 H   0  0  0  0  0  0  0  0  0  0  0  0
   -0.9092   -1.9821   -3.7478 H   0  0  0  0  0  0  0  0  0  0  0  0
    0.9166    5.2322  -10.5225 H   0  0  0  0  0  0  0  0  0  0  0  0
    2.6770    3.6084  -11.0063 H   0  0  0  0  0  0  0  0  0  0  0  0
    3.1224    1.7354   -9.4752 H   0  0  0  0  0  0  0  0  0  0  0  0
    1.6959    1.3660   -7.5060 H   0  0  0  0  0  0  0  0  0  0  0  0
    0.4112    7.0935   -9.9767 H   0  0  0  0  0  0  0  0  0  0  0  0
    4.5382    9.7285  -13.0515 H   0  0  0  0  0  0  0  0  0  0  0  0
    4.6648    9.6898  -11.2821 H   0  0  0  0  0  0  0  0  0  0  0  0
    4.1416    7.2516  -11.2970 H   0  0  0  0  0  0  0  0  0  0  0  0
    4.0230    7.2867  -13.0604 H   0  0  0  0  0  0  0  0  0  0  0  0
    5.5726    7.6014  -12.2731 H   0  0  0  0  0  0  0  0  0  0  0  0
   -8.3395    7.9546   -7.0852 H   0  0  0  0  0  0  0  0  0  0  0  0
   -8.4591    9.2071   -5.8338 H   0  0  0  0  0  0  0  0  0  0  0  0
   -8.3470    6.9303   -4.8236 H   0  0  0  0  0  0  0  0  0  0  0  0
   -6.9326    7.8873   -4.3710 H   0  0  0  0  0  0  0  0  0  0  0  0
   -6.7946    6.6476   -5.6213 H   0  0  0  0  0  0  0  0  0  0  0  0
   -4.6151   12.1308   -9.4039 H   0  0  0  0  0  0  0  0  0  0  0  0
   -3.3565   13.7619  -10.9970 H   0  0  0  0  0  0  0  0  0  0  0  0
  1  2  2  0  0  0  0
  2  3  1  0  0  0  0
  3  4  2  0  0  0  0
  4  5  1  0  0  0  0
  5  6  1  0  0  0  0
  6  7  1  0  0  0  0
  7  8  1  0  0  0  0
  8  9  1  0  0  0  0
  7 10  2  0  0  0  0
 10 11  1  0  0  0  0
 10 12  1  0  0  0  0
 12 13  1  0  0  0  0
  4 14  1  0  0  0  0
 14 15  2  0  0  0  0
 15 16  1  0  0  0  0
 16 17  1  0  0  0  0
 17 18  1  0  0  0  0
 18 19  1  0  0  0  0
 19 20  1  0  0  0  0
 20 21  1  0  0  0  0
 19 22  2  0  0  0  0
 22 23  1  0  0  0  0
 23 24  1  0  0  0  0
 22 25  1  0  0  0  0
 16 26  2  0  0  0  0
 26 27  1  0  0  0  0
 15 28  1  0  0  0  0
 28 29  2  0  0  0  0
 29 30  1  0  0  0  0
 29 31  1  0  0  0  0
 31 32  2  0  0  0  0
 32 33  1  0  0  0  0
 33 34  2  0  0  0  0
 34 35  1  0  0  0  0
 35 36  1  0  0  0  0
 36 37  1  0  0  0  0
 37 38  1  0  0  0  0
 38 39  1  0  0  0  0
 37 40  2  0  0  0  0
 40 41  1  0  0  0  0
 40 42  1  0  0  0  0
 42 43  1  0  0  0  0
 34 44  1  0  0  0  0
 44 45  2  0  0  0  0
 45 46  1  0  0  0  0
 46 47  1  0  0  0  0
 47 48  1  0  0  0  0
 48 49  1  0  0  0  0
 49 50  1  0  0  0  0
 50 51  1  0  0  0  0
 49 52  2  0  0  0  0
 52 53  1  0  0  0  0
 53 54  1  0  0  0  0
 52 55  1  0  0  0  0
 46 56  2  0  0  0  0
 56 57  1  0  0  0  0
 45 58  1  0  0  0  0
 58 59  2  0  0  0  0
 59 60  1  0  0  0  0
 59 61  1  0  0  0  0
 61 62  2  0  0  0  0
 62 63  1  0  0  0  0
 63 64  1  0  0  0  0
 64 65  2  0  0  0  0
 65 66  1  0  0  0  0
 66 67  2  0  0  0  0
 63 68  2  0  0  0  0
 68 69  1  0  0  0  0
 68 70  1  0  0  0  0
 70 71  2  0  0  0  0
 71 72  1  0  0  0  0
 72 73  1  0  0  0  0
 73 74  2  0  0  0  0
 74 75  1  0  0  0  0
 75 76  2  0  0  0  0
 72 77  2  0  0  0  0
 77 78  1  0  0  0  0
 77 79  1  0  0  0  0
 79 80  2  0  0  0  0
 80 81  1  0  0  0  0
 81 82  1  0  0  0  0
 82 83  2  0  0  0  0
 83 84  1  0  0  0  0
 84 85  2  0  0  0  0
 81 86  2  0  0  0  0
 86 87  1  0  0  0  0
 86 88  1  0  0  0  0
 88 89  2  0  0  0  0
 89 90  1  0  0  0  0
 90 91  2  0  0  0  0
 91 92  1  0  0  0  0
 92 93  1  0  0  0  0
 93 94  1  0  0  0  0
 94 95  1  0  0  0  0
 95 96  1  0  0  0  0
 94 97  2  0  0  0  0
 97 98  1  0  0  0  0
 97 99  1  0  0  0  0
 99100  1  0  0  0  0
 91101  1  0  0  0  0
101102  2  0  0  0  0
102103  1  0  0  0  0
103104  1  0  0  0  0
104105  1  0  0  0  0
105106  1  0  0  0  0
106107  1  0  0  0  0
107108  1  0  0  0  0
106109  2  0  0  0  0
109110  1  0  0  0  0
110111  1  0  0  0  0
109112  1  0  0  0  0
103113  2  0  0  0  0
113114  1  0  0  0  0
102115  1  0  0  0  0
115116  2  0  0  0  0
116117  1  0  0  0  0
 27  1  1  0  0  0  0
 57 31  1  0  0  0  0
 69 61  1  0  0  0  0
 78 70  1  0  0  0  0
 87 79  1  0  0  0  0
114 88  1  0  0  0  0
 26  3  1  0  0  0  0
 56 33  1  0  0  0  0
 67 62  1  0  0  0  0
 76 71  1  0  0  0  0
 85 80  1  0  0  0  0
113 90  1  0  0  0  0
 12  5  2  0  0  0  0
 30 14  1  0  0  0  0
 42 35  2  0  0  0  0
 60 44  1  0  0  0  0
 99 92  2  0  0  0  0
117101  1  0  0  0  0
 23 17  2  0  0  0  0
 53 47  2  0  0  0  0
110104  2  0  0  0  0
  1118  1  0  0  0  0
  2119  1  0  0  0  0
  8120  1  0  0  0  0
  8121  1  0  0  0  0
  9122  1  0  0  0  0
  9123  1  0  0  0  0
  9124  1  0  0  0  0
 20125  1  0  0  0  0
 20126  1  0  0  0  0
 21127  1  0  0  0  0
 21128  1  0  0  0  0
 21129  1  0  0  0  0
 28130  1  0  0  0  0
 32131  1  0  0  0  0
 38132  1  0  0  0  0
 38133  1  0  0  0  0
 39134  1  0  0  0  0
 39135  1  0  0  0  0
 39136  1  0  0  0  0
 50137  1  0  0  0  0
 50138  1  0  0  0  0
 51139  1  0  0  0  0
 51140  1  0  0  0  0
 51141  1  0  0  0  0
 58142  1  0  0  0  0
 64143  1  0  0  0  0
 65144  1  0  0  0  0
 66145  1  0  0  0  0
 67146  1  0  0  0  0
 73147  1  0  0  0  0
 74148  1  0  0  0  0
 75149  1  0  0  0  0
 76150  1  0  0  0  0
 82151  1  0  0  0  0
 83152  1  0  0  0  0
 84153  1  0  0  0  0
 85154  1  0  0  0  0
 89155  1  0  0  0  0
 95156  1  0  0  0  0
 95157  1  0  0  0  0
 96158  1  0  0  0  0
 96159  1  0  0  0  0
 96160  1  0  0  0  0
107161  1  0  0  0  0
107162  1  0  0  0  0
108163  1  0  0  0  0
108164  1  0  0  0  0
108165  1  0  0  0  0
115166  1  0  0  0  0
116167  1  0  0  0  0
M  END
