
  xtb     03012209053D
 energy: -103.712777520967 gnorm: 0.000500302840 xtb: 6.4.1 (unknown)
 55 61  0     0  0            999 V2000
    4.9182   -3.6311   -2.4101 C   0  0  0  0  0  0  0  0  0  0  0  0
    6.1008   -2.9873   -3.4806 S   0  0  0  0  0  0  0  0  0  0  0  0
    6.3210   -1.6188   -2.4410 C   0  0  0  0  0  0  0  0  0  0  0  0
    5.5221   -1.6822   -1.3383 C   0  0  0  0  0  0  0  0  0  0  0  0
    4.7096   -2.8349   -1.3311 C   0  0  0  0  0  0  0  0  0  0  0  0
    7.4533   -0.3366   -2.8668 S   0  0  0  0  0  0  0  0  0  0  0  0
    6.4698    1.0314   -2.3754 C   0  0  0  0  0  0  0  0  0  0  0  0
    4.8000    1.1261   -2.8460 S   0  0  0  0  0  0  0  0  0  0  0  0
    4.6022    2.5536   -1.8726 C   0  0  0  0  0  0  0  0  0  0  0  0
    5.7780    2.9648   -1.3210 C   0  0  0  0  0  0  0  0  0  0  0  0
    6.8474    2.0936   -1.6099 C   0  0  0  0  0  0  0  0  0  0  0  0
    3.0153    3.2750   -1.6585 S   0  0  0  0  0  0  0  0  0  0  0  0
    2.1031    1.8134   -1.3105 C   0  0  0  0  0  0  0  0  0  0  0  0
    2.7492    0.5614   -0.2838 S   0  0  0  0  0  0  0  0  0  0  0  0
    1.3235   -0.3885   -0.5289 C   0  0  0  0  0  0  0  0  0  0  0  0
    0.4029    0.2509   -1.3051 C   0  0  0  0  0  0  0  0  0  0  0  0
    0.8490    1.5120   -1.7467 C   0  0  0  0  0  0  0  0  0  0  0  0
    1.2354   -2.0029    0.1604 S   0  0  0  0  0  0  0  0  0  0  0  0
   -0.4981   -2.1497    0.3472 C   0  0  0  0  0  0  0  0  0  0  0  0
   -1.3214   -3.0839   -0.2567 C   0  0  0  0  0  0  0  0  0  0  0  0
   -2.6889   -2.9551    0.1570 C   0  0  0  0  0  0  0  0  0  0  0  0
   -3.6355   -3.8793   -0.3385 C   0  0  0  0  0  0  0  0  0  0  0  0
   -3.2425   -4.8352   -1.2274 C   0  0  0  0  0  0  0  0  0  0  0  0
   -1.9031   -4.9248   -1.6688 C   0  0  0  0  0  0  0  0  0  0  0  0
   -0.9513   -4.0770   -1.1916 C   0  0  0  0  0  0  0  0  0  0  0  0
   -2.8763   -1.9094    1.0640 C   0  0  0  0  0  0  0  0  0  0  0  0
   -1.3723   -1.1356    1.4389 S   0  0  0  0  0  0  0  0  0  0  0  0
   -4.0750   -1.4236    1.6608 C   0  0  0  0  0  0  0  0  0  0  0  0
   -3.9825   -0.5624    3.1794 S   0  0  0  0  0  0  0  0  0  0  0  0
   -5.6944   -0.2968    3.1679 C   0  0  0  0  0  0  0  0  0  0  0  0
   -6.2896   -0.8476    2.0677 C   0  0  0  0  0  0  0  0  0  0  0  0
   -5.3738   -1.4827    1.2160 C   0  0  0  0  0  0  0  0  0  0  0  0
   -6.5205    0.5455    4.4669 S   0  0  0  0  0  0  0  0  0  0  0  0
   -5.1510    1.2528    5.3068 C   0  0  0  0  0  0  0  0  0  0  0  0
   -4.2232    2.5517    4.6018 S   0  0  0  0  0  0  0  0  0  0  0  0
   -3.2177    2.6125    6.0109 C   0  0  0  0  0  0  0  0  0  0  0  0
   -3.6034    1.7109    6.9600 C   0  0  0  0  0  0  0  0  0  0  0  0
   -4.7096    0.9401    6.5559 C   0  0  0  0  0  0  0  0  0  0  0  0
   -1.8691    3.7231    6.1357 S   0  0  0  0  0  0  0  0  0  0  0  0
    4.4531   -4.5664   -2.6485 H   0  0  0  0  0  0  0  0  0  0  0  0
    5.5099   -0.9333   -0.5670 H   0  0  0  0  0  0  0  0  0  0  0  0
    4.0042   -3.0536   -0.5499 H   0  0  0  0  0  0  0  0  0  0  0  0
    5.8604    3.8345   -0.6957 H   0  0  0  0  0  0  0  0  0  0  0  0
    7.8451    2.2186   -1.2316 H   0  0  0  0  0  0  0  0  0  0  0  0
   -0.5467   -0.1759   -1.5733 H   0  0  0  0  0  0  0  0  0  0  0  0
    0.2769    2.1607   -2.3840 H   0  0  0  0  0  0  0  0  0  0  0  0
   -4.6546   -3.8370    0.0103 H   0  0  0  0  0  0  0  0  0  0  0  0
   -3.9620   -5.5469   -1.6035 H   0  0  0  0  0  0  0  0  0  0  0  0
   -1.6395   -5.6896   -2.3836 H   0  0  0  0  0  0  0  0  0  0  0  0
    0.0809   -4.1431   -1.5005 H   0  0  0  0  0  0  0  0  0  0  0  0
   -7.3459   -0.7841    1.8813 H   0  0  0  0  0  0  0  0  0  0  0  0
   -5.6574   -1.9251    0.2791 H   0  0  0  0  0  0  0  0  0  0  0  0
   -3.1028    1.6002    7.9039 H   0  0  0  0  0  0  0  0  0  0  0  0
   -5.1593    0.1716    7.1576 H   0  0  0  0  0  0  0  0  0  0  0  0
   -2.0190    4.2551    4.9241 H   0  0  0  0  0  0  0  0  0  0  0  0
  1  2  1  0  0  0  0
  2  3  1  0  0  0  0
  3  4  2  0  0  0  0
  4  5  1  0  0  0  0
  3  6  1  0  0  0  0
  6  7  1  0  0  0  0
  7  8  1  0  0  0  0
  8  9  1  0  0  0  0
  9 10  2  0  0  0  0
 10 11  1  0  0  0  0
  9 12  1  0  0  0  0
 12 13  1  0  0  0  0
 13 14  1  0  0  0  0
 14 15  1  0  0  0  0
 15 16  2  0  0  0  0
 16 17  1  0  0  0  0
 15 18  1  0  0  0  0
 18 19  1  0  0  0  0
 19 20  2  0  0  0  0
 20 21  1  0  0  0  0
 21 22  1  0  0  0  0
 22 23  2  0  0  0  0
 23 24  1  0  0  0  0
 24 25  2  0  0  0  0
 21 26  2  0  0  0  0
 26 27  1  0  0  0  0
 26 28  1  0  0  0  0
 28 29  1  0  0  0  0
 29 30  1  0  0  0  0
 30 31  2  0  0  0  0
 31 32  1  0  0  0  0
 30 33  1  0  0  0  0
 33 34  1  0  0  0  0
 34 35  1  0  0  0  0
 35 36  1  0  0  0  0
 36 37  2  0  0  0  0
 37 38  1  0  0  0  0
 36 39  1  0  0  0  0
  5  1  2  0  0  0  0
 11  7  2  0  0  0  0
 17 13  2  0  0  0  0
 27 19  1  0  0  0  0
 32 28  2  0  0  0  0
 38 34  2  0  0  0  0
 25 20  1  0  0  0  0
  1 40  1  0  0  0  0
  4 41  1  0  0  0  0
  5 42  1  0  0  0  0
 10 43  1  0  0  0  0
 11 44  1  0  0  0  0
 16 45  1  0  0  0  0
 17 46  1  0  0  0  0
 22 47  1  0  0  0  0
 23 48  1  0  0  0  0
 24 49  1  0  0  0  0
 25 50  1  0  0  0  0
 31 51  1  0  0  0  0
 32 52  1  0  0  0  0
 37 53  1  0  0  0  0
 38 54  1  0  0  0  0
 39 55  1  0  0  0  0
M  END
