138

C         -0.89360       -1.55570      -13.13710
C         -1.11850       -0.66180      -12.15320
C         -1.19230       -1.26500      -10.86390
C         -1.43520       -0.65030       -9.62450
C         -1.51690        0.79450       -9.48620
S         -2.83400        1.56080       -8.65020
C         -2.15400        3.13760       -8.86200
C         -2.86160        4.35540       -8.37900
C         -3.89580        4.83210       -9.40140
C         -0.97950        3.05910       -9.54900
Cl        -0.00960        4.41880       -9.94540
C         -0.61160        1.73270       -9.89980
Cl         0.86980        1.36400      -10.68530
C         -1.54710       -1.48300       -8.52000
C         -1.37350       -2.88650       -8.58600
C         -1.12020       -3.50050       -9.82480
C         -0.97440       -4.94170       -9.92780
S          0.39890       -5.66410      -10.71160
C         -0.16350       -7.26910      -10.39140
C          0.58890       -8.45890      -10.87550
C          0.28000       -8.73710      -12.34850
C         -1.35370       -7.23100       -9.72820
C         -1.81350       -5.91470       -9.45830
Cl        -3.31950       -5.60460       -8.69250
Cl        -2.22860       -8.62720       -9.24630
C         -1.02890       -2.66810      -10.93460
S         -0.76330       -3.18720      -12.57570
C         -1.42690       -3.49200       -7.30670
C         -1.67550       -2.61110       -6.29200
S         -1.82590       -0.96110       -6.88570
C         -1.76060       -2.82860       -4.89090
C         -1.97460       -3.99870       -4.15150
C         -1.88710       -3.78010       -2.73750
C         -2.07300       -4.86340       -1.85480
C         -2.35140       -6.10140       -2.35740
C         -2.47670       -6.30910       -3.74500
C         -2.29710       -5.28570       -4.63010
C         -1.64000       -2.44140       -2.40920
S         -1.52400       -1.47580       -3.84140
C         -1.43850       -1.79030       -1.16550
C         -1.37920       -0.43100       -1.00090
C         -1.05090       -0.01950        0.30580
C         -0.91600        1.29680        0.79260
C         -1.13260        2.44050       -0.07700
S         -0.33210        2.56560       -1.61780
C         -1.09140        4.07680       -1.98390
C         -0.86790        4.74640       -3.29470
C         -1.67710        4.06800       -4.40350
C         -1.90970        4.45170       -0.96120
Cl        -2.84290        5.89210       -0.95970
C         -1.93020        3.53290        0.12340
Cl        -2.93890        3.75480        1.49090
C         -0.53800        1.43570        2.11870
C         -0.31470        0.33090        2.97930
C         -0.53910       -0.98100        2.51480
C         -0.42170       -2.11610        3.41050
S          0.51390       -3.52250        2.99670
C          0.13810       -4.30900        4.49130
C          0.71630       -5.63770        4.83290
C          2.07560       -5.48060        5.51900
C         -0.66320       -3.51530        5.25660
C         -0.98760       -2.27490        4.64660
Cl        -2.05610       -1.14460        5.37310
Cl        -1.24680       -3.95970        6.80800
C         -0.86950       -1.12220        1.17560
S         -1.13250       -2.63150        0.34400
C          0.19530        0.73210        4.23000
C          0.33640        2.09010        4.37060
S         -0.17280        2.93660        2.91970
C          0.86910        2.75290        5.50220
C          0.89360        4.10910        5.85550
C          1.56320        4.34790        7.09720
C          1.54230        5.64010        7.66060
C          0.94970        6.66310        6.97760
C          0.35190        6.44300        5.72210
C          0.30800        5.19430        5.17180
C          2.09280        3.17940        7.66600
S          1.66100        1.79450        6.71560
C          2.87300        3.00790        8.83310
C          3.87110        3.82570        9.38080
C          4.41770        3.30290       10.59500
C          5.38570        4.06260       11.28310
C          5.85170        5.22600       10.74040
C          5.39940        5.67210        9.48470
C          4.42250        4.99390        8.81500
C          3.87680        2.05340       10.95340
S          2.68640        1.56870        9.78420
C          4.23140        1.19190       12.01860
C          3.53570        0.08840       12.54150
C          4.27460       -0.59140       13.56760
C          3.72610       -1.72870       14.20590
C          2.48670       -2.16150       13.84600
C          1.74340       -1.47820       12.86020
C          2.24540       -0.38070       12.22140
C          5.49920       -0.00860       13.81080
S          5.76980        1.35050       12.82140
H         -0.79460       -1.36780      -14.18830
H         -1.24580        0.39140      -12.32220
H         -3.36040        4.13220       -7.43440
H         -2.12520        5.14370       -8.21170
H         -4.64000        4.05830       -9.57310
H         -4.39690        5.72470       -9.03690
H         -3.41170        5.06560      -10.34630
H          1.65960       -8.28400      -10.75690
H          0.30570       -9.32240      -10.27100
H          0.83580       -9.60660      -12.68870
H          0.55860       -7.88170      -12.95930
H         -0.78190       -8.92790      -12.48150
H         -1.22070       -4.53270       -7.14810
H         -2.00480       -4.70190       -0.79080
H         -2.49790       -6.93470       -1.68710
H         -2.72960       -7.29440       -4.10670
H         -2.43010       -5.44700       -5.68690
H         -1.56680        0.24820       -1.81220
H          0.19330        4.70510       -3.54760
H         -1.16670        5.79240       -3.20770
H         -1.38790        3.02400       -4.49980
H         -1.49870        4.56670       -5.35240
H         -2.73950        4.11510       -4.17740
H          0.83370       -6.22570        3.92140
H          0.02850       -6.15880        5.50170
H          2.48860       -6.45680        5.75810
H          1.96930       -4.91170        6.43920
H          2.76920       -4.95760        4.86490
H          0.47610        0.04430        5.00700
H          1.96840        5.80060        8.63860
H          0.92380        7.65370        7.40610
H         -0.10090        7.27460        5.20360
H         -0.18820        5.02970        4.22910
H          5.75450        3.72930       12.23910
H          6.59220        5.80650       11.26950
H          5.82970        6.56410        9.05500
H          4.08020        5.32750        7.84800
H          4.30230       -2.22890       14.96970
H          2.05270       -3.02860       14.32130
H          0.75430       -1.83390       12.61370
H          1.64910        0.13170       11.48400
H          6.24460       -0.30750       14.52010
