196

C          4.45200       -8.35900        7.93550
C          3.87790       -8.10700        6.74170
C          3.43070       -6.75970        6.61760
C          2.83510       -6.13880        5.51010
C          2.65350       -6.82420        4.23910
S          1.10660       -6.87890        3.44880
C          1.74120       -7.74330        2.09290
C          0.89080       -8.16950        0.94510
C         -0.45450       -7.45830        0.90740
C          3.07690       -7.96550        2.25870
Cl         4.05010       -8.78610        1.10240
C          3.59890       -7.44740        3.47260
Cl         5.26530       -7.53310        3.87710
C          2.46200       -4.81020        5.66050
C          2.69090       -4.06790        6.84360
C          3.31490       -4.68140        7.94320
C          3.60750       -3.92270        9.14840
S          4.49950       -2.43070        9.05810
C          4.41570       -2.18210       10.76960
C          4.99510       -0.95920       11.39000
C          4.25650        0.29750       10.92680
C          3.73460       -3.20360       11.36020
C          3.27970       -4.19430       10.44670
Cl         2.33500       -5.53420       10.94380
Cl         3.43540       -3.31180       13.04700
C          3.66460       -6.01980        7.80340
S          4.47820       -6.99310        8.99500
C          2.23970       -2.72870        6.72300
C          1.71980       -2.44220        5.49590
S          1.73210       -3.82860        4.42690
C          1.25490       -1.19220        4.98850
C          1.14350        0.01270        5.62070
C          0.75420        1.06690        4.75650
C          0.56100        2.43000        5.06670
C          0.80550        2.94260        6.40410
S         -0.39060        3.90180        7.22470
C          0.60510        4.08890        8.62690
C          0.15720        4.91100        9.78430
C          0.38000        6.40060        9.51260
C          1.79660        3.45160        8.44900
Cl         3.05200        3.42640        9.61860
C          1.91330        2.79650        7.19370
Cl         3.35200        1.98760        6.71500
C          0.13820        3.25650        4.03470
C         -0.05920        2.78440        2.71380
C          0.10760        1.42430        2.39990
C         -0.13980        0.90710        1.06750
S          0.97320       -0.22160        0.34440
C          0.03400       -0.35480       -1.09850
C          0.37140       -1.36360       -2.13680
C         -0.31080       -2.68670       -1.78000
C         -1.07090        0.43920       -1.02040
C         -1.17970        1.14770        0.20670
Cl        -2.57210        2.08260        0.57600
Cl        -2.22550        0.58800       -2.28820
C          0.53450        0.60460        3.43520
S          0.83060       -1.09880        3.29540
C         -0.37540        3.82610        1.82580
C         -0.49690        5.05850        2.41170
S         -0.13940        4.98240        4.12810
C         -0.90380        6.19830        1.66890
C         -0.81900        7.58250        1.84860
C         -1.26030        8.32680        0.70020
C         -1.27200        9.73550        0.75590
C         -0.82350       10.36830        1.87970
C         -0.34870        9.63720        2.98750
C         -0.34860        8.27190        2.98390
C         -1.69120        7.50610       -0.34630
S         -1.60270        5.84120        0.12850
C         -2.04450        7.67150       -1.71720
C         -1.40560        8.34030       -2.76960
C         -1.68280        7.74440       -4.04730
C         -1.07790        8.26680       -5.20930
C         -0.21170        9.31530       -5.10050
C          0.09920        9.86980       -3.84190
C         -0.47750        9.39860       -2.69710
C         -2.53830        6.64420       -3.96510
S         -3.09990        6.43680       -2.34130
C         -2.69340        5.51860       -4.82690
C         -1.70890        4.93510       -5.57460
C         -1.98010        3.58420       -5.90380
C         -1.07190        2.63350       -6.40760
C          0.19890        3.04670       -6.96670
S          1.69440        2.25250       -6.56820
C          2.61260        3.28460       -7.60890
C          4.09230        3.15840       -7.71370
C          4.79370        4.02020       -6.66090
C          1.79710        4.19210       -8.21770
Cl         2.34930        5.37990       -9.32680
C          0.43020        4.05960       -7.86050
Cl        -0.79840        5.02660       -8.56800
C         -1.43990        1.29710       -6.28690
C         -2.72240        0.88200       -5.85410
C         -3.67110        1.84200       -5.45640
C         -4.99840        1.48660       -4.98640
S         -5.25640        0.28820       -3.75310
C         -6.96600        0.54850       -3.74060
C         -7.84790       -0.18220       -2.78970
C         -7.83290        0.48380       -1.41160
C         -7.30300        1.51460       -4.64060
C         -6.19290        2.04830       -5.34780
Cl        -6.37040        3.22010       -6.58530
Cl        -8.91070        2.04660       -4.91700
C         -3.24800        3.16490       -5.43380
S         -4.08390        4.46650       -4.63520
C         -2.83550       -0.53230       -5.81190
C         -1.67830       -1.17430       -6.12680
S         -0.40230       -0.06680       -6.58460
C         -1.39050       -2.57430       -5.98160
C         -2.16140       -3.65450       -6.27020
C         -1.58170       -4.88580       -5.85720
C         -2.11870       -6.17750       -5.97660
C         -3.31410       -6.42250       -6.76290
S         -4.65630       -7.33590       -6.14160
C         -5.54850       -7.17520       -7.61480
C         -6.87560       -7.82680       -7.78860
C         -6.71070       -9.27530       -8.25530
C         -4.83070       -6.46380       -8.52980
Cl        -5.38370       -6.11270      -10.11620
C         -3.56710       -6.02880       -8.04920
Cl        -2.45260       -5.17020       -9.03250
C         -1.44030       -7.20340       -5.32720
C         -0.26460       -6.99270       -4.57030
C          0.30190       -5.70990       -4.49120
C          1.43960       -5.42900       -3.63110
S          1.40650       -5.93070       -1.96070
C          2.88750       -5.11160       -1.59390
C          3.44810       -5.11470       -0.21510
C          2.55400       -4.35030        0.76250
C          3.37280       -4.50450       -2.71260
C          2.56080       -4.68320       -3.86730
Cl         3.02170       -4.08310       -5.40490
Cl         4.82660       -3.59220       -2.75670
C         -0.35420       -4.69120       -5.17760
S          0.11450       -3.01850       -5.20700
C          0.22150       -8.20940       -4.00790
C         -0.53960       -9.27520       -4.32870
S         -1.89600       -8.88390       -5.32770
H          4.87090       -9.28310        8.28310
H          3.76050       -8.84250        5.96740
H          0.73190       -9.25120        1.00750
H          1.43900       -7.97640        0.01860
H         -1.02530       -7.67300        1.80790
H         -1.02510       -7.78760        0.04360
H         -0.31560       -6.38270        0.83580
H          6.04970       -0.87630       11.11630
H          4.92580       -1.05490       12.47460
H          4.32990        0.40210        9.84680
H          3.20540        0.24300       11.20020
H          4.69000        1.17900       11.39140
H          2.30950       -2.00400        7.51210
H          1.32920        0.14160        6.67010
H         -0.90360        4.73160        9.96800
H          0.72210        4.60950       10.66810
H          1.43510        6.59890        9.34200
H          0.04760        6.98900       10.36350
H         -0.17890        6.70990        8.63260
H          1.45130       -1.50720       -2.18350
H          0.02180       -1.01610       -3.10980
H         -1.39020       -2.55840       -1.76300
H         -0.06330       -3.44710       -2.51260
H          0.01550       -3.02580       -0.79980
H         -0.47470        3.68130        0.76670
H         -1.66290       10.29420       -0.08110
H         -0.83660       11.44670        1.93250
H          0.00400       10.17450        3.85490
H         -0.00660        7.70760        3.83830
H         -1.32240        7.83570       -6.16800
H          0.25120        9.72910       -5.98360
H          0.80440       10.68580       -3.79130
H         -0.23020        9.82380       -1.73740
H         -0.76090        5.40880       -5.75140
H          4.40230        3.47790       -8.71070
H          4.37490        2.11360       -7.57600
H          5.87140        3.91620       -6.75230
H          4.53180        5.06670       -6.79490
H          4.49580        3.71160       -5.66170
H         -7.50580       -1.21480       -2.69700
H         -8.86480       -0.18320       -3.18610
H         -8.18620        1.50930       -1.48480
H         -8.47850       -0.05960       -0.72690
H         -6.82310        0.49230       -1.00810
H         -3.72160       -1.05260       -5.49850
H         -3.12010       -3.58010       -6.74910
H         -7.44810       -7.26650       -8.53000
H         -7.41560       -7.80940       -6.84060
H         -6.18520       -9.30670       -9.20640
H         -6.14100       -9.84410       -7.52430
H         -7.68470       -9.74050       -8.37990
H          4.43770       -4.65640       -0.24610
H          3.55760       -6.14510        0.12980
H          1.56150       -4.79310        0.79630
H          2.97880       -4.38600        1.76160
H          2.46130       -3.30860        0.46470
H          1.10990       -8.27200       -3.40710
H         -0.39230      -10.29860       -4.04440
