145

C          2.61680        4.01970        9.56630
C          1.40010        3.42060        9.75040
C          0.66210        2.93250        8.66260
C          1.13130        3.04250        7.37530
C          2.36870        3.70100        7.15680
C          3.12190        4.17170        8.26160
N          4.31800        4.76520        8.05810
C          4.74670        4.91980        6.83270
C          6.10880        5.53020        6.67610
C          7.18010        4.44310        6.56490
C          3.94720        4.51840        5.71880
C          4.36280        4.78890        4.30020
C          3.38950        4.19510        3.29020
N          2.79790        3.92660        5.90100
C          0.41270        2.51040        6.21450
C         -0.89380        2.83800        5.93520
C         -1.53090        2.37850        4.77940
C         -0.87750        1.59140        3.85600
C          0.47200        1.23350        4.11640
C          1.10020        1.65810        5.31470
N          2.33150        1.20650        5.62040
C          2.98070        0.48020        4.75030
C          4.34190        0.00490        5.16910
C          5.38160        1.10120        4.93150
C          2.41220        0.19640        3.47290
C          3.18120       -0.51750        2.39770
C          2.43800       -0.53840        1.06810
N          1.17930        0.53570        3.20670
C         -1.52140        1.13700        2.62480
C         -1.38340       -0.16220        2.18070
C         -1.98890       -0.60460        1.00840
C         -2.75610        0.23070        0.21490
C         -2.87100        1.59280        0.61400
C         -2.28090        2.03430        1.82930
N         -2.41290        3.32080        2.20070
C         -3.05750        4.16070        1.43040
C         -3.19760        5.55520        1.97100
C         -4.17320        5.57320        3.14910
C         -3.56940        3.73640        0.17260
C         -4.24170        4.64440       -0.81560
C         -5.70640        4.88310       -0.44660
N         -3.47000        2.48330       -0.19360
C         -3.33710       -0.26180       -1.00970
C         -4.55140        0.03590       -1.62620
C         -4.71060       -0.64260       -2.88050
C         -5.84840       -0.35090       -3.66530
C         -6.81950        0.47340       -3.17640
C         -6.71870        1.03260       -1.88680
C         -5.60530        0.83120       -1.12680
C         -3.63100       -1.48200       -3.18380
S         -2.41070       -1.35850       -1.96830
C         -3.43470       -2.39230       -4.27470
C         -4.45830       -2.95400       -5.02360
C         -4.20590       -3.85600       -6.05650
C         -2.92870       -4.24570       -6.39980
C         -1.84800       -3.68750       -5.67140
C         -2.10680       -2.81170       -4.58870
N         -1.09030       -2.38590       -3.83040
C          0.14090       -2.73510       -4.11020
C          1.17890       -2.30650       -3.11600
C          1.05800       -3.15080       -1.84540
C          0.40580       -3.47950       -5.29350
C          1.78840       -3.78070       -5.79490
C          2.36120       -5.02370       -5.11420
N         -0.57640       -3.93890       -6.02610
C         -2.66340       -5.23430       -7.44390
C         -3.21740       -5.14000       -8.70010
C         -2.91860       -6.07190       -9.70310
C         -2.05220       -7.10500       -9.46900
C         -1.47880       -7.24910       -8.19190
C         -1.80710       -6.33100       -7.16110
N         -1.36190       -6.54240       -5.90870
C         -0.55810       -7.54770       -5.67980
C         -0.19600       -7.78450       -4.24140
C         -1.15990       -8.79610       -3.61700
C         -0.12880       -8.39750       -6.74190
C          0.89940       -9.47730       -6.56660
C          2.31000       -8.89520       -6.68350
N         -0.61230       -8.25450       -7.94860
H          3.20730        4.38190       10.39330
H          0.99990        3.30580       10.74750
H         -0.28200        2.43820        8.84180
H          6.30890        6.13330        7.56260
H          6.13930        6.17320        5.79530
H          7.15680        3.80880        7.44770
H          7.01730        3.81850        5.68920
H          8.16570        4.89590        6.48700
H          4.42330        5.87260        4.15930
H          5.36400        4.38430        4.13350
H          3.32230        3.11900        3.41940
H          3.71940        4.40980        2.27650
H          2.39590        4.60790        3.43630
H         -1.43300        3.48340        6.61440
H         -2.55850        2.65210        4.59930
H          4.61870       -0.90040        4.62780
H          4.30820       -0.21690        6.23730
H          5.10080        1.99040        5.49000
H          6.36320        0.77140        5.26450
H          5.44150        1.35900        3.87560
H          4.15150       -0.02900        2.27460
H          3.37370       -1.54380        2.72740
H          2.21750        0.47500        0.74490
H          3.04400       -1.02770        0.30860
H          1.49510       -1.06690        1.16900
H         -0.80920       -0.85890        2.77070
H         -1.87280       -1.63730        0.71160
H         -3.53530        6.24250        1.19680
H         -2.21770        5.87980        2.32680
H         -5.15890        5.22840        2.84180
H         -4.26660        6.58100        3.54700
H         -3.80930        4.91830        3.93620
H         -4.19800        4.15280       -1.78860
H         -3.71170        5.59670       -0.87960
H         -6.18300        5.50880       -1.19760
H         -5.79320        5.37610        0.51860
H         -6.23490        3.93400       -0.40190
H         -5.93380       -0.75250       -4.66220
H         -7.68630        0.70100       -3.77990
H         -7.53220        1.63860       -1.51460
H         -5.51380        1.27130       -0.14750
H         -5.48430       -2.74130       -4.77080
H         -5.04480       -4.29090       -6.58170
H          0.99440       -1.26280       -2.85570
H          2.18160       -2.39620       -3.53160
H          1.21150       -4.20560       -2.06570
H          1.79620       -2.83630       -1.11230
H          0.06590       -3.02710       -1.41970
H          2.44750       -2.92540       -5.63510
H          1.71320       -3.96910       -6.86700
H          2.46270       -4.87240       -4.04230
H          3.34030       -5.25980       -5.52530
H          1.69620       -5.86640       -5.28470
H         -3.87700       -4.31410       -8.92550
H         -3.37100       -5.95510      -10.67740
H         -1.78930       -7.81750      -10.23510
H         -0.28790       -6.83470       -3.71190
H          0.82940       -8.14430       -4.14950
H         -2.17850       -8.41990       -3.67410
H         -0.90760       -8.96150       -2.57210
H         -1.11710       -9.74960       -4.13970
H          0.78160       -9.97350       -5.60290
H          0.75100      -10.21010       -7.36090
H          2.49810       -8.16310       -5.90090
H          3.05050       -9.68740       -6.60040
H          2.43060       -8.40560       -7.64680
