138

C          3.64900       -0.62090       11.75420
C          3.42160        0.70190       11.62230
C          2.77710        1.03230       10.39530
C          2.34980        2.29370        9.94750
C          2.66770        3.50530       10.68460
S          1.44280        4.65560       11.12720
C          2.59210        5.70620       11.88190
C          2.17310        7.00700       12.47250
C          2.02810        8.07630       11.38720
C          3.84840        5.18830       11.77740
Cl         5.25470        5.95310       12.39530
C          3.89500        3.93800       11.10410
Cl         5.36690        3.11260       10.78900
C          1.62740        2.32970        8.76440
C          1.36450        1.17880        7.98320
C          1.83890       -0.07660        8.40340
C          1.60460       -1.27330        7.61370
S          0.00130       -1.72680        7.11350
C          0.56730       -3.15040        6.30880
C         -0.36840       -4.03480        5.56150
C         -0.66370       -3.46690        4.17110
C          1.92120       -3.24980        6.42300
C          2.51230       -2.19300        7.16690
Cl         4.20620       -2.06120        7.38830
Cl         2.84760       -4.52370        5.74250
C          2.52320       -0.11900        9.61270
S          3.10350       -1.55560       10.40590
C          0.65350        1.49370        6.80510
C          0.35330        2.82450        6.66730
S          0.97290        3.76040        8.01780
C         -0.35880        3.39480        5.58280
C         -0.75400        4.71250        5.31580
C         -1.45530        4.84260        4.07460
C         -1.79830        6.12500        3.59990
C         -1.53180        7.22110        4.36880
C         -0.91630        7.08690        5.62810
C         -0.52090        5.86580        6.09340
C         -1.63020        3.61720        3.41500
S         -0.86180        2.33870        4.29880
C         -2.27690        3.32350        2.19200
C         -3.45290        3.85200        1.63710
C         -3.76870        3.28880        0.36140
C         -4.99300        3.61730       -0.25450
C         -5.84070        4.49890        0.35460
C         -5.52600        5.05930        1.60650
C         -4.36630        4.73370        2.25050
C         -2.82730        2.33520       -0.06270
S         -1.62430        2.08480        1.16550
C         -2.75730        1.58090       -1.25310
C         -3.10240        1.91970       -2.57110
C         -2.90540        0.84670       -3.49410
C         -3.27920        1.03630       -4.83840
C         -3.72970        2.25760       -5.25650
C         -3.80170        3.34520       -4.36920
C         -3.50110        3.18470       -3.04640
C         -2.35010       -0.30690       -2.89810
S         -2.11590       -0.03090       -1.19580
C         -1.92030       -1.50520       -3.50140
C         -1.57150       -2.73700       -2.90330
C         -1.07870       -3.69800       -3.84180
C         -0.75830       -4.99890       -3.40340
C         -0.87980       -5.31660       -2.08070
C         -1.34640       -4.36930       -1.15390
C         -1.70130       -3.11040       -1.55290
C         -1.03150       -3.20230       -5.15210
S         -1.64670       -1.58770       -5.21530
C         -0.57090       -3.81110       -6.34740
C          0.30770       -4.84730       -6.50970
C          0.53830       -5.19420       -7.86120
C          1.39810       -6.18780       -8.36040
C          2.12930       -7.06330       -7.46080
S          1.30120       -7.95680       -6.21710
C          2.76460       -8.69580       -5.65830
C          2.75770       -9.61590       -4.48810
C          2.46140       -8.85770       -3.19270
C          3.82220       -8.26110       -6.39830
Cl         5.44430       -8.76010       -6.14110
C          3.46680       -7.34100       -7.42280
Cl         4.63610       -6.59870       -8.43150
C          1.49380       -6.30320       -9.74280
C          0.78060       -5.46820      -10.63510
C         -0.07980       -4.47680      -10.13580
C         -0.82600       -3.59670      -11.02170
S         -0.01840       -2.62490      -12.21660
C         -1.50000       -1.90520      -12.74830
C         -1.51470       -0.85670      -13.80520
C         -1.24540        0.52610      -13.20700
C         -2.54780       -2.39570      -12.02860
C         -2.17100       -3.35630      -11.05150
Cl        -3.31850       -4.17670      -10.07840
Cl        -4.17910       -1.92160      -12.27060
C         -0.18210       -4.36550       -8.75630
S         -1.13050       -3.18980       -7.89540
C          1.01920       -5.82570      -11.99370
C          1.85800       -6.87460      -12.11910
S          2.41940       -7.49700      -10.60740
H          4.11370       -1.13080       12.57530
H          3.67930        1.42800       12.37100
H          2.92490        7.32020       13.19890
H          1.21870        6.88130       12.98690
H          1.71560        9.01800       11.83030
H          1.28540        7.76970       10.65440
H          2.97660        8.22790       10.87840
H          0.08570       -5.02260        5.46640
H         -1.30160       -4.13020        6.11960
H         -1.35160       -4.11940        3.64010
H         -1.11240       -2.47970        4.25410
H          0.25420       -3.38390        3.59470
H          0.36860        0.76310        6.06990
H         -2.24510        6.22810        2.62350
H         -1.78730        8.20690        4.01040
H         -0.73640        7.97140        6.22040
H         -0.02350        5.77850        7.04550
H         -5.26800        3.13990       -1.18160
H         -6.78210        4.74880       -0.11110
H         -6.23140        5.72950        2.07420
H         -4.15830        5.11220        3.23880
H         -3.21770        0.22040       -5.53930
H         -4.01610        2.39830       -6.28760
H         -4.10300        4.31270       -4.74150
H         -3.54300        4.01920       -2.36420
H         -0.45150       -5.74420       -4.11840
H         -0.63560       -6.31160       -1.73980
H         -1.44680       -4.65070       -0.11660
H         -2.09950       -2.41500       -0.83290
H          0.82700       -5.31160       -5.69390
H          3.73400      -10.09830       -4.42140
H          1.99810      -10.38710       -4.63540
H          2.46120       -9.54350       -2.34980
H          1.48770       -8.37670       -3.25300
H          3.21590       -8.09410       -3.02030
H         -2.49330       -0.86150      -14.28890
H         -0.75250       -1.08370      -14.55270
H         -1.26680        1.28140      -13.98790
H         -2.00200        0.76900      -12.46540
H         -0.26960        0.54600      -12.72740
H          0.57060       -5.31800      -12.82760
H          2.19860       -7.34130      -13.02250
