
  xtb     03012222343D
 energy: -236.625958624721 gnorm: 0.000182772152 xtb: 6.4.1 (unknown)
155171  0     0  0            999 V2000
   -5.2227    4.4864   15.4549 C   0  0  0  0  0  0  0  0  0  0  0  0
   -4.5644    3.3336   15.2246 C   0  0  0  0  0  0  0  0  0  0  0  0
   -4.9564    2.6983   14.0070 C   0  0  0  0  0  0  0  0  0  0  0  0
   -4.4833    1.5029   13.4571 C   0  0  0  0  0  0  0  0  0  0  0  0
   -3.3996    0.6953   14.1065 C   0  0  0  0  0  0  0  0  0  0  0  0
   -2.0204    1.2233   13.7070 C   0  0  0  0  0  0  0  0  0  0  0  0
   -5.0309    1.1278   12.2437 C   0  0  0  0  0  0  0  0  0  0  0  0
   -6.0256    1.8749   11.5642 C   0  0  0  0  0  0  0  0  0  0  0  0
   -6.4995    3.0716   12.1162 C   0  0  0  0  0  0  0  0  0  0  0  0
   -7.5709    3.8850   11.4545 C   0  0  0  0  0  0  0  0  0  0  0  0
   -8.9578    3.3379   11.7974 C   0  0  0  0  0  0  0  0  0  0  0  0
   -5.9509    3.4456   13.3293 C   0  0  0  0  0  0  0  0  0  0  0  0
   -6.3660    4.8909   14.2206 S   0  0  0  0  0  0  0  0  0  0  0  0
   -6.3993    1.2615   10.3394 C   0  0  0  0  0  0  0  0  0  0  0  0
   -5.7269    0.1045   10.0762 C   0  0  0  0  0  0  0  0  0  0  0  0
   -4.5929   -0.3029   11.3467 S   0  0  0  0  0  0  0  0  0  0  0  0
   -5.8158   -0.7170    8.9098 C   0  0  0  0  0  0  0  0  0  0  0  0
   -6.6374   -0.5586    7.8318 C   0  0  0  0  0  0  0  0  0  0  0  0
   -6.3967   -1.4887    6.7878 C   0  0  0  0  0  0  0  0  0  0  0  0
   -7.0094   -1.5594    5.5288 C   0  0  0  0  0  0  0  0  0  0  0  0
   -8.1003   -0.6161    5.1182 C   0  0  0  0  0  0  0  0  0  0  0  0
   -7.5142    0.6892    4.5763 C   0  0  0  0  0  0  0  0  0  0  0  0
   -6.4922   -2.4905    4.6492 C   0  0  0  0  0  0  0  0  0  0  0  0
   -5.4372   -3.3802    4.9756 C   0  0  0  0  0  0  0  0  0  0  0  0
   -4.8694   -3.3549    6.2552 C   0  0  0  0  0  0  0  0  0  0  0  0
   -3.7368   -4.2576    6.6418 C   0  0  0  0  0  0  0  0  0  0  0  0
   -2.3952   -3.6638    6.2073 C   0  0  0  0  0  0  0  0  0  0  0  0
   -5.3523   -2.3895    7.1181 C   0  0  0  0  0  0  0  0  0  0  0  0
   -4.7219   -2.0693    8.7125 S   0  0  0  0  0  0  0  0  0  0  0  0
   -5.0382   -4.1560    3.8578 C   0  0  0  0  0  0  0  0  0  0  0  0
   -5.7263   -3.8729    2.7160 C   0  0  0  0  0  0  0  0  0  0  0  0
   -6.9775   -2.6716    2.9795 S   0  0  0  0  0  0  0  0  0  0  0  0
   -5.4132   -4.3066    1.3945 C   0  0  0  0  0  0  0  0  0  0  0  0
   -5.9911   -3.9226    0.2210 C   0  0  0  0  0  0  0  0  0  0  0  0
   -5.2680   -4.3245   -0.9319 C   0  0  0  0  0  0  0  0  0  0  0  0
   -5.5122   -3.9866   -2.2718 C   0  0  0  0  0  0  0  0  0  0  0  0
   -6.7617   -3.2742   -2.6929 C   0  0  0  0  0  0  0  0  0  0  0  0
   -7.9322   -4.2534   -2.7964 C   0  0  0  0  0  0  0  0  0  0  0  0
   -4.5258   -4.3285   -3.1757 C   0  0  0  0  0  0  0  0  0  0  0  0
   -3.3436   -5.0276   -2.8212 C   0  0  0  0  0  0  0  0  0  0  0  0
   -3.1510   -5.4607   -1.5029 C   0  0  0  0  0  0  0  0  0  0  0  0
   -1.9186   -6.2024   -1.0806 C   0  0  0  0  0  0  0  0  0  0  0  0
   -0.7842   -5.2324   -0.7432 C   0  0  0  0  0  0  0  0  0  0  0  0
   -4.1071   -5.0636   -0.5896 C   0  0  0  0  0  0  0  0  0  0  0  0
   -3.9808   -5.2867    1.1370 S   0  0  0  0  0  0  0  0  0  0  0  0
   -2.4202   -5.0790   -3.8910 C   0  0  0  0  0  0  0  0  0  0  0  0
   -2.8385   -4.4359   -5.0232 C   0  0  0  0  0  0  0  0  0  0  0  0
   -4.4832   -3.8392   -4.8558 S   0  0  0  0  0  0  0  0  0  0  0  0
   -2.0063   -4.0687   -6.1151 C   0  0  0  0  0  0  0  0  0  0  0  0
   -2.3030   -3.5157   -7.3640 C   0  0  0  0  0  0  0  0  0  0  0  0
   -1.1390   -3.0401   -8.0530 C   0  0  0  0  0  0  0  0  0  0  0  0
   -1.2768   -2.4979   -9.3480 C   0  0  0  0  0  0  0  0  0  0  0  0
   -2.5165   -2.4042   -9.9100 C   0  0  0  0  0  0  0  0  0  0  0  0
   -3.6638   -2.8470   -9.2205 C   0  0  0  0  0  0  0  0  0  0  0  0
   -3.5678   -3.4004   -7.9772 C   0  0  0  0  0  0  0  0  0  0  0  0
    0.0346   -3.2145   -7.3136 C   0  0  0  0  0  0  0  0  0  0  0  0
   -0.2954   -4.0517   -5.8360 S   0  0  0  0  0  0  0  0  0  0  0  0
    1.3364   -2.6676   -7.4902 C   0  0  0  0  0  0  0  0  0  0  0  0
    1.7017   -1.5214   -8.1391 C   0  0  0  0  0  0  0  0  0  0  0  0
    3.0377   -1.1189   -7.8834 C   0  0  0  0  0  0  0  0  0  0  0  0
    3.6798    0.0573   -8.2967 C   0  0  0  0  0  0  0  0  0  0  0  0
    3.0330    1.0230   -9.2436 C   0  0  0  0  0  0  0  0  0  0  0  0
    3.1642    0.5352  -10.6875 C   0  0  0  0  0  0  0  0  0  0  0  0
    4.9460    0.2744   -7.7881 C   0  0  0  0  0  0  0  0  0  0  0  0
    5.6104   -0.6274   -6.9184 C   0  0  0  0  0  0  0  0  0  0  0  0
    4.9857   -1.8225   -6.5378 C   0  0  0  0  0  0  0  0  0  0  0  0
    5.6645   -2.8282   -5.6581 C   0  0  0  0  0  0  0  0  0  0  0  0
    6.6163   -3.7049   -6.4739 C   0  0  0  0  0  0  0  0  0  0  0  0
    3.7087   -2.0243   -7.0220 C   0  0  0  0  0  0  0  0  0  0  0  0
    2.6743   -3.3613   -6.5875 S   0  0  0  0  0  0  0  0  0  0  0  0
    6.8617   -0.1187   -6.4869 C   0  0  0  0  0  0  0  0  0  0  0  0
    7.1522    1.1185   -6.9777 C   0  0  0  0  0  0  0  0  0  0  0  0
    5.9061    1.7095   -8.0606 S   0  0  0  0  0  0  0  0  0  0  0  0
    8.2705    1.9412   -6.6524 C   0  0  0  0  0  0  0  0  0  0  0  0
    8.5194    3.2172   -7.0575 C   0  0  0  0  0  0  0  0  0  0  0  0
    9.6869    3.7845   -6.4810 C   0  0  0  0  0  0  0  0  0  0  0  0
   10.2075    5.0710   -6.6637 C   0  0  0  0  0  0  0  0  0  0  0  0
    9.5749    6.0591   -7.5965 C   0  0  0  0  0  0  0  0  0  0  0  0
   10.0282    5.8125   -9.0366 C   0  0  0  0  0  0  0  0  0  0  0  0
   11.3626    5.3689   -5.9633 C   0  0  0  0  0  0  0  0  0  0  0  0
   12.0105    4.4598   -5.0917 C   0  0  0  0  0  0  0  0  0  0  0  0
   11.4917    3.1735   -4.9100 C   0  0  0  0  0  0  0  0  0  0  0  0
   12.1097    2.1870   -3.9649 C   0  0  0  0  0  0  0  0  0  0  0  0
   11.5972    2.4103   -2.5407 C   0  0  0  0  0  0  0  0  0  0  0  0
   10.3374    2.8751   -5.6099 C   0  0  0  0  0  0  0  0  0  0  0  0
    9.4865    1.3519   -5.5340 S   0  0  0  0  0  0  0  0  0  0  0  0
   13.1662    5.0452   -4.4908 C   0  0  0  0  0  0  0  0  0  0  0  0
   13.3805    6.3156   -4.8856 C   0  0  0  0  0  0  0  0  0  0  0  0
   12.2049    6.8995   -6.0128 S   0  0  0  0  0  0  0  0  0  0  0  0
   -5.1169    5.1523   16.2893 H   0  0  0  0  0  0  0  0  0  0  0  0
   -3.8186    2.9381   15.8902 H   0  0  0  0  0  0  0  0  0  0  0  0
   -3.5064    0.7301   15.1919 H   0  0  0  0  0  0  0  0  0  0  0  0
   -3.4908   -0.3455   13.7873 H   0  0  0  0  0  0  0  0  0  0  0  0
   -1.9076    2.2623   14.0091 H   0  0  0  0  0  0  0  0  0  0  0  0
   -1.2383    0.6347   14.1805 H   0  0  0  0  0  0  0  0  0  0  0  0
   -1.8940    1.1632   12.6285 H   0  0  0  0  0  0  0  0  0  0  0  0
   -7.4980    4.9190   11.7989 H   0  0  0  0  0  0  0  0  0  0  0  0
   -7.4298    3.8759   10.3721 H   0  0  0  0  0  0  0  0  0  0  0  0
   -9.1192    3.3738   12.8722 H   0  0  0  0  0  0  0  0  0  0  0  0
   -9.7290    3.9306   11.3112 H   0  0  0  0  0  0  0  0  0  0  0  0
   -9.0518    2.3047   11.4705 H   0  0  0  0  0  0  0  0  0  0  0  0
   -7.1337    1.6724    9.6714 H   0  0  0  0  0  0  0  0  0  0  0  0
   -7.3801    0.2158    7.7756 H   0  0  0  0  0  0  0  0  0  0  0  0
   -8.7485   -0.4035    5.9701 H   0  0  0  0  0  0  0  0  0  0  0  0
   -8.7038   -1.0877    4.3392 H   0  0  0  0  0  0  0  0  0  0  0  0
   -8.3108    1.3693    4.2845 H   0  0  0  0  0  0  0  0  0  0  0  0
   -6.8988    1.1739    5.3311 H   0  0  0  0  0  0  0  0  0  0  0  0
   -6.8942    0.4881    3.7059 H   0  0  0  0  0  0  0  0  0  0  0  0
   -3.7372   -4.3842    7.7269 H   0  0  0  0  0  0  0  0  0  0  0  0
   -3.8703   -5.2385    6.1825 H   0  0  0  0  0  0  0  0  0  0  0  0
   -2.2401   -2.6990    6.6845 H   0  0  0  0  0  0  0  0  0  0  0  0
   -1.5805   -4.3255    6.4910 H   0  0  0  0  0  0  0  0  0  0  0  0
   -2.3709   -3.5226    5.1291 H   0  0  0  0  0  0  0  0  0  0  0  0
   -4.2342   -4.8700    3.8770 H   0  0  0  0  0  0  0  0  0  0  0  0
   -6.8804   -3.3182    0.1948 H   0  0  0  0  0  0  0  0  0  0  0  0
   -6.5955   -2.8052   -3.6655 H   0  0  0  0  0  0  0  0  0  0  0  0
   -7.0046   -2.4901   -1.9733 H   0  0  0  0  0  0  0  0  0  0  0  0
   -7.7121   -5.0268   -3.5289 H   0  0  0  0  0  0  0  0  0  0  0  0
   -8.1148   -4.7313   -1.8365 H   0  0  0  0  0  0  0  0  0  0  0  0
   -8.8353   -3.7317   -3.1037 H   0  0  0  0  0  0  0  0  0  0  0  0
   -2.1508   -6.8015   -0.1969 H   0  0  0  0  0  0  0  0  0  0  0  0
   -1.6010   -6.8768   -1.8776 H   0  0  0  0  0  0  0  0  0  0  0  0
    0.1036   -5.7820   -0.4401 H   0  0  0  0  0  0  0  0  0  0  0  0
   -1.0817   -4.5772    0.0722 H   0  0  0  0  0  0  0  0  0  0  0  0
   -0.5366   -4.6176   -1.6055 H   0  0  0  0  0  0  0  0  0  0  0  0
   -1.4427   -5.5215   -3.8170 H   0  0  0  0  0  0  0  0  0  0  0  0
   -0.3975   -2.1911   -9.8922 H   0  0  0  0  0  0  0  0  0  0  0  0
   -2.6288   -1.9971  -10.9039 H   0  0  0  0  0  0  0  0  0  0  0  0
   -4.6274   -2.7602   -9.6994 H   0  0  0  0  0  0  0  0  0  0  0  0
   -4.4430   -3.7657   -7.4629 H   0  0  0  0  0  0  0  0  0  0  0  0
    1.0079   -0.9316   -8.7087 H   0  0  0  0  0  0  0  0  0  0  0  0
    1.9775    1.1421   -8.9915 H   0  0  0  0  0  0  0  0  0  0  0  0
    3.5178    1.9969   -9.1469 H   0  0  0  0  0  0  0  0  0  0  0  0
    2.6953   -0.4392  -10.8049 H   0  0  0  0  0  0  0  0  0  0  0  0
    4.2135    0.4456  -10.9592 H   0  0  0  0  0  0  0  0  0  0  0  0
    2.6884    1.2366  -11.3686 H   0  0  0  0  0  0  0  0  0  0  0  0
    4.9071   -3.4594   -5.1876 H   0  0  0  0  0  0  0  0  0  0  0  0
    6.2216   -2.3185   -4.8700 H   0  0  0  0  0  0  0  0  0  0  0  0
    7.1047   -4.4326   -5.8304 H   0  0  0  0  0  0  0  0  0  0  0  0
    6.0666   -4.2386   -7.2459 H   0  0  0  0  0  0  0  0  0  0  0  0
    7.3790   -3.0955   -6.9535 H   0  0  0  0  0  0  0  0  0  0  0  0
    7.5201   -0.6326   -5.8093 H   0  0  0  0  0  0  0  0  0  0  0  0
    7.8721    3.7353   -7.7426 H   0  0  0  0  0  0  0  0  0  0  0  0
    8.4878    5.9833   -7.5368 H   0  0  0  0  0  0  0  0  0  0  0  0
    9.8644    7.0688   -7.2966 H   0  0  0  0  0  0  0  0  0  0  0  0
    9.5664    6.5338   -9.7064 H   0  0  0  0  0  0  0  0  0  0  0  0
   11.1086    5.9114   -9.1120 H   0  0  0  0  0  0  0  0  0  0  0  0
    9.7511    4.8107   -9.3572 H   0  0  0  0  0  0  0  0  0  0  0  0
   11.8490    1.1755   -4.2851 H   0  0  0  0  0  0  0  0  0  0  0  0
   13.1966    2.2814   -3.9834 H   0  0  0  0  0  0  0  0  0  0  0  0
   12.0473    1.6922   -1.8595 H   0  0  0  0  0  0  0  0  0  0  0  0
   10.5169    2.2890   -2.5078 H   0  0  0  0  0  0  0  0  0  0  0  0
   11.8405    3.4146   -2.2011 H   0  0  0  0  0  0  0  0  0  0  0  0
   13.8008    4.5304   -3.7923 H   0  0  0  0  0  0  0  0  0  0  0  0
   14.1716    6.9755   -4.5865 H   0  0  0  0  0  0  0  0  0  0  0  0
  1  2  2  0  0  0  0
  2  3  1  0  0  0  0
  3  4  2  0  0  0  0
  4  5  1  0  0  0  0
  5  6  1  0  0  0  0
  4  7  1  0  0  0  0
  7  8  2  0  0  0  0
  8  9  1  0  0  0  0
  9 10  1  0  0  0  0
 10 11  1  0  0  0  0
  9 12  2  0  0  0  0
 12 13  1  0  0  0  0
  8 14  1  0  0  0  0
 14 15  2  0  0  0  0
 15 16  1  0  0  0  0
 15 17  1  0  0  0  0
 17 18  2  0  0  0  0
 18 19  1  0  0  0  0
 19 20  2  0  0  0  0
 20 21  1  0  0  0  0
 21 22  1  0  0  0  0
 20 23  1  0  0  0  0
 23 24  2  0  0  0  0
 24 25  1  0  0  0  0
 25 26  1  0  0  0  0
 26 27  1  0  0  0  0
 25 28  2  0  0  0  0
 28 29  1  0  0  0  0
 24 30  1  0  0  0  0
 30 31  2  0  0  0  0
 31 32  1  0  0  0  0
 31 33  1  0  0  0  0
 33 34  2  0  0  0  0
 34 35  1  0  0  0  0
 35 36  2  0  0  0  0
 36 37  1  0  0  0  0
 37 38  1  0  0  0  0
 36 39  1  0  0  0  0
 39 40  2  0  0  0  0
 40 41  1  0  0  0  0
 41 42  1  0  0  0  0
 42 43  1  0  0  0  0
 41 44  2  0  0  0  0
 44 45  1  0  0  0  0
 40 46  1  0  0  0  0
 46 47  2  0  0  0  0
 47 48  1  0  0  0  0
 47 49  1  0  0  0  0
 49 50  2  0  0  0  0
 50 51  1  0  0  0  0
 51 52  1  0  0  0  0
 52 53  2  0  0  0  0
 53 54  1  0  0  0  0
 54 55  2  0  0  0  0
 51 56  2  0  0  0  0
 56 57  1  0  0  0  0
 56 58  1  0  0  0  0
 58 59  2  0  0  0  0
 59 60  1  0  0  0  0
 60 61  2  0  0  0  0
 61 62  1  0  0  0  0
 62 63  1  0  0  0  0
 61 64  1  0  0  0  0
 64 65  2  0  0  0  0
 65 66  1  0  0  0  0
 66 67  1  0  0  0  0
 67 68  1  0  0  0  0
 66 69  2  0  0  0  0
 69 70  1  0  0  0  0
 65 71  1  0  0  0  0
 71 72  2  0  0  0  0
 72 73  1  0  0  0  0
 72 74  1  0  0  0  0
 74 75  2  0  0  0  0
 75 76  1  0  0  0  0
 76 77  2  0  0  0  0
 77 78  1  0  0  0  0
 78 79  1  0  0  0  0
 77 80  1  0  0  0  0
 80 81  2  0  0  0  0
 81 82  1  0  0  0  0
 82 83  1  0  0  0  0
 83 84  1  0  0  0  0
 82 85  2  0  0  0  0
 85 86  1  0  0  0  0
 81 87  1  0  0  0  0
 87 88  2  0  0  0  0
 88 89  1  0  0  0  0
 13  1  1  0  0  0  0
 29 17  1  0  0  0  0
 45 33  1  0  0  0  0
 57 49  1  0  0  0  0
 70 58  1  0  0  0  0
 86 74  1  0  0  0  0
 12  3  1  0  0  0  0
 28 19  1  0  0  0  0
 44 35  1  0  0  0  0
 55 50  1  0  0  0  0
 69 60  1  0  0  0  0
 85 76  1  0  0  0  0
 16  7  1  0  0  0  0
 32 23  1  0  0  0  0
 48 39  1  0  0  0  0
 73 64  1  0  0  0  0
 89 80  1  0  0  0  0
  1 90  1  0  0  0  0
  2 91  1  0  0  0  0
  5 92  1  0  0  0  0
  5 93  1  0  0  0  0
  6 94  1  0  0  0  0
  6 95  1  0  0  0  0
  6 96  1  0  0  0  0
 10 97  1  0  0  0  0
 10 98  1  0  0  0  0
 11 99  1  0  0  0  0
 11100  1  0  0  0  0
 11101  1  0  0  0  0
 14102  1  0  0  0  0
 18103  1  0  0  0  0
 21104  1  0  0  0  0
 21105  1  0  0  0  0
 22106  1  0  0  0  0
 22107  1  0  0  0  0
 22108  1  0  0  0  0
 26109  1  0  0  0  0
 26110  1  0  0  0  0
 27111  1  0  0  0  0
 27112  1  0  0  0  0
 27113  1  0  0  0  0
 30114  1  0  0  0  0
 34115  1  0  0  0  0
 37116  1  0  0  0  0
 37117  1  0  0  0  0
 38118  1  0  0  0  0
 38119  1  0  0  0  0
 38120  1  0  0  0  0
 42121  1  0  0  0  0
 42122  1  0  0  0  0
 43123  1  0  0  0  0
 43124  1  0  0  0  0
 43125  1  0  0  0  0
 46126  1  0  0  0  0
 52127  1  0  0  0  0
 53128  1  0  0  0  0
 54129  1  0  0  0  0
 55130  1  0  0  0  0
 59131  1  0  0  0  0
 62132  1  0  0  0  0
 62133  1  0  0  0  0
 63134  1  0  0  0  0
 63135  1  0  0  0  0
 63136  1  0  0  0  0
 67137  1  0  0  0  0
 67138  1  0  0  0  0
 68139  1  0  0  0  0
 68140  1  0  0  0  0
 68141  1  0  0  0  0
 71142  1  0  0  0  0
 75143  1  0  0  0  0
 78144  1  0  0  0  0
 78145  1  0  0  0  0
 79146  1  0  0  0  0
 79147  1  0  0  0  0
 79148  1  0  0  0  0
 83149  1  0  0  0  0
 83150  1  0  0  0  0
 84151  1  0  0  0  0
 84152  1  0  0  0  0
 84153  1  0  0  0  0
 87154  1  0  0  0  0
 88155  1  0  0  0  0
M  END
