60

C          3.60620       -3.39600        1.94460
O          2.84460       -3.21290        0.85280
C          3.37410       -3.91150       -0.16480
C          4.51920       -4.56010        0.29420
C          4.65370       -4.21360        1.66600
N          5.43140       -5.39640       -0.39270
O          5.21180       -5.65210       -1.55980
O          6.38230       -5.80330        0.23790
C          2.68600       -3.85200       -1.42310
O          1.62750       -3.00170       -1.48740
C          1.07290       -3.09400       -2.70380
C          1.79310       -4.02680       -3.45250
C          2.83100       -4.50760       -2.62170
N          1.59070       -4.45010       -4.79090
O          2.37900       -5.24820       -5.24180
O          0.64330       -3.98620       -5.39440
C         -0.06680       -2.26470       -2.94550
O         -0.34420       -1.35490       -1.96990
C         -1.46440       -0.69150       -2.30090
C         -1.93570       -1.20120       -3.51550
C         -1.02180       -2.19440       -3.93230
N         -3.17980       -0.94790       -4.14370
O         -3.30530       -1.29450       -5.29750
O         -4.04940       -0.42650       -3.46920
C         -1.89840        0.29580       -1.37910
C         -2.66170        1.46330       -1.51640
C         -2.88370        2.11360       -0.25860
C         -3.64860        3.29580       -0.21290
C         -4.14420        3.81760       -1.37420
C         -3.86580        3.21730       -2.61630
C         -3.12810        2.06970       -2.69900
C         -2.23790        1.45790        0.79770
S         -1.37750        0.06820        0.25370
C         -2.13670        1.75500        2.18620
O         -1.22930        1.00410        2.86930
C         -1.22900        1.37780        4.15860
C         -2.16350        2.39510        4.32270
C         -2.74380        2.63340        3.05370
N         -2.51280        3.11080        5.50090
O         -1.92780        2.84360        6.52700
O         -3.37990        3.94970        5.38580
C         -0.29800        0.68290        4.99510
O         -0.19450        0.89210        6.32520
C          0.75660        0.10730        6.79460
C          1.30110       -0.63940        5.76940
C          0.61410       -0.26820        4.59170
N          2.35010       -1.59040        5.86050
O          2.70350       -2.11840        4.82470
O          2.81960       -1.80790        6.95280
H          3.30380       -2.90920        2.85170
H          5.43230       -4.54690        2.31920
H          3.57200       -5.23230       -2.89070
H         -1.08490       -2.77850       -4.82750
H         -3.82470        3.78390        0.73050
H         -4.73590        4.71960       -1.34890
H         -4.23270        3.68340       -3.51730
H         -2.88210        1.65120       -3.65880
H         -3.51000        3.35300        2.85990
H          0.98410        0.13720        7.84260
H          0.77140       -0.64510        3.60310
