
  xtb     03012220573D
 energy: -149.832675651872 gnorm: 0.000415347175 xtb: 6.4.1 (unknown)
100106  0     0  0            999 V2000
   -1.1309   -2.1599    4.7378 C   0  0  0  0  0  0  0  0  0  0  0  0
   -0.9092   -1.3871    3.6631 O   0  0  0  0  0  0  0  0  0  0  0  0
   -1.9457   -0.5133    3.5736 C   0  0  0  0  0  0  0  0  0  0  0  0
   -2.8309   -0.7378    4.6105 C   0  0  0  0  0  0  0  0  0  0  0  0
   -2.2898   -1.8134    5.3672 C   0  0  0  0  0  0  0  0  0  0  0  0
   -2.8820   -2.4136    6.5930 C   0  0  0  0  0  0  0  0  0  0  0  0
   -4.1039   -0.0317    4.9142 C   0  0  0  0  0  0  0  0  0  0  0  0
   -1.9945    0.4199    2.4918 C   0  0  0  0  0  0  0  0  0  0  0  0
   -1.0752    0.4342    1.5057 C   0  0  0  0  0  0  0  0  0  0  0  0
   -1.0390    1.2709    0.3528 C   0  0  0  0  0  0  0  0  0  0  0  0
   -0.1413    0.9270   -0.5999 O   0  0  0  0  0  0  0  0  0  0  0  0
   -0.2208    1.8248   -1.6112 C   0  0  0  0  0  0  0  0  0  0  0  0
   -1.2013    2.7660   -1.3128 C   0  0  0  0  0  0  0  0  0  0  0  0
   -1.7227    2.4131   -0.0493 C   0  0  0  0  0  0  0  0  0  0  0  0
   -2.7683    3.1392    0.7249 C   0  0  0  0  0  0  0  0  0  0  0  0
   -1.6137    3.9149   -2.1663 C   0  0  0  0  0  0  0  0  0  0  0  0
    0.7128    1.6479   -2.6679 C   0  0  0  0  0  0  0  0  0  0  0  0
    0.9225    2.4360   -3.7469 C   0  0  0  0  0  0  0  0  0  0  0  0
    2.0038    2.2050   -4.6450 C   0  0  0  0  0  0  0  0  0  0  0  0
    2.8630    1.1877   -4.3959 O   0  0  0  0  0  0  0  0  0  0  0  0
    3.8634    1.2414   -5.3063 C   0  0  0  0  0  0  0  0  0  0  0  0
    3.6322    2.2963   -6.1823 C   0  0  0  0  0  0  0  0  0  0  0  0
    2.4381    2.9152   -5.7555 C   0  0  0  0  0  0  0  0  0  0  0  0
    1.8036    4.1008   -6.3930 C   0  0  0  0  0  0  0  0  0  0  0  0
    4.4544    2.7334   -7.3429 C   0  0  0  0  0  0  0  0  0  0  0  0
    4.9196    0.2847   -5.2998 C   0  0  0  0  0  0  0  0  0  0  0  0
    5.1464   -0.7172   -4.4155 C   0  0  0  0  0  0  0  0  0  0  0  0
    4.4572   -0.9852   -3.1945 C   0  0  0  0  0  0  0  0  0  0  0  0
    3.9725   -0.1354   -2.2003 C   0  0  0  0  0  0  0  0  0  0  0  0
    3.2298   -0.8238   -1.1885 C   0  0  0  0  0  0  0  0  0  0  0  0
    2.6891   -0.1033   -0.1017 C   0  0  0  0  0  0  0  0  0  0  0  0
    2.8991    1.2411   -0.0224 C   0  0  0  0  0  0  0  0  0  0  0  0
    3.6634    1.9161   -0.9981 C   0  0  0  0  0  0  0  0  0  0  0  0
    4.2024    1.2510   -2.0599 C   0  0  0  0  0  0  0  0  0  0  0  0
    3.1984   -2.2051   -1.3871 C   0  0  0  0  0  0  0  0  0  0  0  0
    4.1089   -2.6416   -2.7903 S   0  0  0  0  0  0  0  0  0  0  0  0
    2.4753   -3.1802   -0.6363 C   0  0  0  0  0  0  0  0  0  0  0  0
    1.2874   -2.8202   -0.0920 O   0  0  0  0  0  0  0  0  0  0  0  0
    0.7873   -3.8976    0.5643 C   0  0  0  0  0  0  0  0  0  0  0  0
    1.6730   -4.9573    0.4601 C   0  0  0  0  0  0  0  0  0  0  0  0
    2.7534   -4.5010   -0.3301 C   0  0  0  0  0  0  0  0  0  0  0  0
    3.9486   -5.2891   -0.7330 C   0  0  0  0  0  0  0  0  0  0  0  0
    1.5302   -6.3245    1.0301 C   0  0  0  0  0  0  0  0  0  0  0  0
   -0.5138   -3.8066    1.1444 C   0  0  0  0  0  0  0  0  0  0  0  0
   -1.3922   -2.8414    0.7997 C   0  0  0  0  0  0  0  0  0  0  0  0
   -2.6987   -2.6955    1.3476 C   0  0  0  0  0  0  0  0  0  0  0  0
   -3.0738   -3.4262    2.4217 O   0  0  0  0  0  0  0  0  0  0  0  0
   -4.3407   -3.0674    2.7524 C   0  0  0  0  0  0  0  0  0  0  0  0
   -4.7976   -2.1060    1.8667 C   0  0  0  0  0  0  0  0  0  0  0  0
   -3.7395   -1.8649    0.9620 C   0  0  0  0  0  0  0  0  0  0  0  0
   -3.7696   -0.9274   -0.1940 C   0  0  0  0  0  0  0  0  0  0  0  0
   -6.1347   -1.4510    1.8333 C   0  0  0  0  0  0  0  0  0  0  0  0
   -4.9109   -3.7327    3.8882 C   0  0  0  0  0  0  0  0  0  0  0  0
   -6.0913   -3.4905    4.4574 C   0  0  0  0  0  0  0  0  0  0  0  0
   -0.4029   -2.9167    4.9545 H   0  0  0  0  0  0  0  0  0  0  0  0
   -2.2933   -3.2667    6.9195 H   0  0  0  0  0  0  0  0  0  0  0  0
   -3.9027   -2.7393    6.3975 H   0  0  0  0  0  0  0  0  0  0  0  0
   -2.9120   -1.6792    7.3977 H   0  0  0  0  0  0  0  0  0  0  0  0
   -4.0139    0.5285    5.8458 H   0  0  0  0  0  0  0  0  0  0  0  0
   -4.3670    0.6585    4.1175 H   0  0  0  0  0  0  0  0  0  0  0  0
   -4.9081   -0.7568    5.0370 H   0  0  0  0  0  0  0  0  0  0  0  0
   -2.8353    1.0932    2.4941 H   0  0  0  0  0  0  0  0  0  0  0  0
   -0.2758   -0.2929    1.5437 H   0  0  0  0  0  0  0  0  0  0  0  0
   -2.9203    4.1379    0.3235 H   0  0  0  0  0  0  0  0  0  0  0  0
   -3.7206    2.6087    0.6860 H   0  0  0  0  0  0  0  0  0  0  0  0
   -2.4688    3.2290    1.7675 H   0  0  0  0  0  0  0  0  0  0  0  0
   -2.4600    4.4371   -1.7280 H   0  0  0  0  0  0  0  0  0  0  0  0
   -0.7915    4.6219   -2.2783 H   0  0  0  0  0  0  0  0  0  0  0  0
   -1.9025    3.5659   -3.1568 H   0  0  0  0  0  0  0  0  0  0  0  0
    1.3512    0.7855   -2.5386 H   0  0  0  0  0  0  0  0  0  0  0  0
    0.3145    3.3022   -3.9471 H   0  0  0  0  0  0  0  0  0  0  0  0
    2.4808    4.9546   -6.3637 H   0  0  0  0  0  0  0  0  0  0  0  0
    0.8813    4.3688   -5.8861 H   0  0  0  0  0  0  0  0  0  0  0  0
    1.5789    3.8916   -7.4388 H   0  0  0  0  0  0  0  0  0  0  0  0
    4.7926    3.7597   -7.1998 H   0  0  0  0  0  0  0  0  0  0  0  0
    5.3244    2.0967   -7.4729 H   0  0  0  0  0  0  0  0  0  0  0  0
    3.8602    2.7048   -8.2564 H   0  0  0  0  0  0  0  0  0  0  0  0
    5.5766    0.3490   -6.1561 H   0  0  0  0  0  0  0  0  0  0  0  0
    5.8924   -1.4546   -4.6886 H   0  0  0  0  0  0  0  0  0  0  0  0
    2.1298   -0.6303    0.6543 H   0  0  0  0  0  0  0  0  0  0  0  0
    2.4928    1.8036    0.8052 H   0  0  0  0  0  0  0  0  0  0  0  0
    3.8343    2.9769   -0.8841 H   0  0  0  0  0  0  0  0  0  0  0  0
    4.8213    1.7608   -2.7821 H   0  0  0  0  0  0  0  0  0  0  0  0
    3.7303   -5.8852   -1.6197 H   0  0  0  0  0  0  0  0  0  0  0  0
    4.2411   -5.9666    0.0667 H   0  0  0  0  0  0  0  0  0  0  0  0
    4.7823   -4.6308   -0.9661 H   0  0  0  0  0  0  0  0  0  0  0  0
    2.3720   -6.5520    1.6844 H   0  0  0  0  0  0  0  0  0  0  0  0
    1.5176   -7.0670    0.2327 H   0  0  0  0  0  0  0  0  0  0  0  0
    0.6106   -6.4107    1.6011 H   0  0  0  0  0  0  0  0  0  0  0  0
   -0.7946   -4.5716    1.8524 H   0  0  0  0  0  0  0  0  0  0  0  0
   -1.1099   -2.1187    0.0492 H   0  0  0  0  0  0  0  0  0  0  0  0
   -4.0454    0.0736    0.1334 H   0  0  0  0  0  0  0  0  0  0  0  0
   -4.5016   -1.2585   -0.9316 H   0  0  0  0  0  0  0  0  0  0  0  0
   -2.7979   -0.8747   -0.6743 H   0  0  0  0  0  0  0  0  0  0  0  0
   -6.9266   -2.1987    1.8231 H   0  0  0  0  0  0  0  0  0  0  0  0
   -6.2755   -0.8151    2.7066 H   0  0  0  0  0  0  0  0  0  0  0  0
   -6.2267   -0.8365    0.9418 H   0  0  0  0  0  0  0  0  0  0  0  0
   -4.2650   -4.4993    4.2979 H   0  0  0  0  0  0  0  0  0  0  0  0
   -6.7666   -2.7357    4.0999 H   0  0  0  0  0  0  0  0  0  0  0  0
   -6.4177   -4.0576    5.3121 H   0  0  0  0  0  0  0  0  0  0  0  0
  1  2  1  0  0  0  0
  2  3  1  0  0  0  0
  3  4  2  0  0  0  0
  4  5  1  0  0  0  0
  5  6  1  0  0  0  0
  4  7  1  0  0  0  0
  3  8  1  0  0  0  0
  8  9  2  0  0  0  0
  9 10  1  0  0  0  0
 10 11  1  0  0  0  0
 11 12  1  0  0  0  0
 12 13  2  0  0  0  0
 13 14  1  0  0  0  0
 14 15  1  0  0  0  0
 13 16  1  0  0  0  0
 12 17  1  0  0  0  0
 17 18  2  0  0  0  0
 18 19  1  0  0  0  0
 19 20  1  0  0  0  0
 20 21  1  0  0  0  0
 21 22  2  0  0  0  0
 22 23  1  0  0  0  0
 23 24  1  0  0  0  0
 22 25  1  0  0  0  0
 21 26  1  0  0  0  0
 26 27  2  0  0  0  0
 27 28  1  0  0  0  0
 28 29  2  0  0  0  0
 29 30  1  0  0  0  0
 30 31  1  0  0  0  0
 31 32  2  0  0  0  0
 32 33  1  0  0  0  0
 33 34  2  0  0  0  0
 30 35  2  0  0  0  0
 35 36  1  0  0  0  0
 35 37  1  0  0  0  0
 37 38  1  0  0  0  0
 38 39  1  0  0  0  0
 39 40  2  0  0  0  0
 40 41  1  0  0  0  0
 41 42  1  0  0  0  0
 40 43  1  0  0  0  0
 39 44  1  0  0  0  0
 44 45  2  0  0  0  0
 45 46  1  0  0  0  0
 46 47  1  0  0  0  0
 47 48  1  0  0  0  0
 48 49  2  0  0  0  0
 49 50  1  0  0  0  0
 50 51  1  0  0  0  0
 49 52  1  0  0  0  0
 48 53  1  0  0  0  0
 53 54  2  0  0  0  0
  5  1  2  0  0  0  0
 14 10  2  0  0  0  0
 23 19  2  0  0  0  0
 36 28  1  0  0  0  0
 41 37  2  0  0  0  0
 50 46  2  0  0  0  0
 34 29  1  0  0  0  0
  1 55  1  0  0  0  0
  6 56  1  0  0  0  0
  6 57  1  0  0  0  0
  6 58  1  0  0  0  0
  7 59  1  0  0  0  0
  7 60  1  0  0  0  0
  7 61  1  0  0  0  0
  8 62  1  0  0  0  0
  9 63  1  0  0  0  0
 15 64  1  0  0  0  0
 15 65  1  0  0  0  0
 15 66  1  0  0  0  0
 16 67  1  0  0  0  0
 16 68  1  0  0  0  0
 16 69  1  0  0  0  0
 17 70  1  0  0  0  0
 18 71  1  0  0  0  0
 24 72  1  0  0  0  0
 24 73  1  0  0  0  0
 24 74  1  0  0  0  0
 25 75  1  0  0  0  0
 25 76  1  0  0  0  0
 25 77  1  0  0  0  0
 26 78  1  0  0  0  0
 27 79  1  0  0  0  0
 31 80  1  0  0  0  0
 32 81  1  0  0  0  0
 33 82  1  0  0  0  0
 34 83  1  0  0  0  0
 42 84  1  0  0  0  0
 42 85  1  0  0  0  0
 42 86  1  0  0  0  0
 43 87  1  0  0  0  0
 43 88  1  0  0  0  0
 43 89  1  0  0  0  0
 44 90  1  0  0  0  0
 45 91  1  0  0  0  0
 51 92  1  0  0  0  0
 51 93  1  0  0  0  0
 51 94  1  0  0  0  0
 52 95  1  0  0  0  0
 52 96  1  0  0  0  0
 52 97  1  0  0  0  0
 53 98  1  0  0  0  0
 54 99  1  0  0  0  0
 54100  1  0  0  0  0
M  END
