45

C          6.95000       -0.87710        5.36260
O          6.07260       -0.70040        4.35530
C          6.81090       -0.21250        3.33830
N          8.07420       -0.07330        3.63590
C          8.18010       -0.49310        4.92350
C          6.21770        0.10340        2.07850
O          4.89130       -0.07940        1.86320
C          4.69280        0.31610        0.58990
N          5.78470        0.72940       -0.00500
C          6.76140        0.60440        0.91670
C          3.39880        0.27100        0.00170
O          2.32180       -0.16320        0.71060
C          1.28150       -0.06440       -0.14380
N          1.62950        0.39550       -1.32710
C          2.95420        0.61260       -1.25830
C         -0.03760       -0.42100        0.22590
C         -0.52380       -0.92250        1.43980
C         -1.93620       -1.14810        1.40630
C         -2.58000       -1.63690        2.56130
C         -1.84490       -1.89560        3.68290
C         -0.45270       -1.68270        3.70820
C          0.20590       -1.20290        2.61240
C         -2.49160       -0.81510        0.16300
S         -1.29300       -0.22940       -0.93580
C         -3.83620       -0.88660       -0.29240
O         -4.11520       -0.38960       -1.52810
C         -5.43420       -0.58920       -1.70540
N         -6.01040       -1.17360       -0.68730
C         -5.02770       -1.37180        0.21580
C         -6.08710       -0.17980       -2.90620
O         -5.40160        0.43160       -3.90440
C         -6.31550        0.66850       -4.84680
N         -7.50900        0.26890       -4.54670
C         -7.39860       -0.27870       -3.31080
H          6.58110       -1.26380        6.28940
H          9.11970       -0.48870        5.43450
H          7.77710        0.86980        0.71570
H          3.51870        0.99150       -2.08340
H         -3.64470       -1.79590        2.55400
H         -2.33290       -2.26840        4.57080
H          0.09360       -1.90120        4.61330
H          1.27010       -1.03330        2.62870
H         -5.23720       -1.85070        1.14790
H         -6.01710        1.15450       -5.75330
H         -8.23160       -0.70090       -2.79110
