138

C         -4.05810        4.72750       11.73900
C         -3.97470        5.47730       10.62150
C         -3.71530        4.70190        9.45380
C         -3.60250        5.13970        8.12570
C         -3.79360        6.53630        7.76610
S         -2.58320        7.41330        6.87980
C         -3.52920        8.86220        6.87110
C         -3.04840       10.08790        6.17620
C         -3.28420        9.98740        4.66740
C         -4.71610        8.65770        7.50890
Cl        -5.92650        9.86080        7.69250
C         -4.86720        7.34160        8.02320
Cl        -6.29550        6.81590        8.81740
C         -3.31310        4.17930        7.16580
C         -3.15510        2.80710        7.47520
C         -3.27910        2.36480        8.80340
C         -3.12030        0.95880        9.13840
S         -4.05090       -0.26800        8.32770
C         -3.30380       -1.54500        9.22670
C         -3.63580       -2.97030        8.95370
C         -2.97590       -3.44610        7.65750
C         -2.38800       -1.03460       10.09660
C         -2.28470        0.38290       10.05380
Cl        -1.14790        1.24640       11.00090
Cl        -1.43460       -1.99040       11.15560
C         -3.56250        3.32820        9.76390
S         -3.80980        3.03910       11.46210
C         -2.86030        2.03800        6.32390
C         -2.82180        2.77070        5.17330
S         -3.13500        4.46890        5.45880
C         -2.55220        2.28080        3.86000
C         -2.38920        0.97580        3.49200
C         -2.08580        0.80920        2.12120
C         -1.79470       -0.38490        1.43590
C         -1.73710       -1.65690        2.13670
S         -2.64780       -3.03150        1.58520
C         -2.07260       -4.03000        2.87570
C         -2.54780       -5.43140        3.03800
C         -3.88440       -5.47200        3.78260
C         -1.22760       -3.32480        3.67940
Cl        -0.45160       -3.98120        5.06180
C         -1.03050       -1.98130        3.26200
Cl         0.05800       -0.92120        4.06410
C         -1.55340       -0.28620        0.07420
C         -1.57430        0.94500       -0.62730
C         -1.85170        2.14050        0.06070
C         -1.88620        3.42060       -0.62770
S         -0.54100        3.97650       -1.58100
C         -1.33850        5.45710       -1.98990
C         -0.70770        6.44250       -2.91030
C         -0.95340        6.05530       -4.37080
C         -2.57550        5.49950       -1.42060
C         -2.88740        4.35150       -0.64310
Cl        -4.41090        4.14350        0.11370
Cl        -3.67090        6.80670       -1.60960
C         -2.08860        2.04360        1.42540
S         -2.38270        3.37450        2.50610
C         -1.29310        0.77790       -2.00260
C         -1.04130       -0.51770       -2.36230
S         -1.14500       -1.60570       -0.98390
C         -0.69160       -1.03400       -3.63810
C         -0.94170       -0.50910       -4.91180
C         -0.33930       -1.28010       -5.95570
C         -0.37880       -0.80200       -7.28190
C         -1.07710        0.33550       -7.56710
C         -1.77460        1.02690       -6.55710
C         -1.70700        0.62620       -5.25430
C          0.32290       -2.42060       -5.47720
S          0.23840       -2.49230       -3.74710
C          1.04060       -3.40740       -6.19470
C          0.76710       -4.00230       -7.43360
C          1.78070       -4.92110       -7.84880
C          1.60770       -5.62300       -9.05710
C          0.47970       -5.42750       -9.80400
C         -0.53260       -4.55150       -9.37320
C         -0.40370       -3.85600       -8.20540
C          2.82600       -5.05290       -6.91100
S          2.49820       -4.06330       -5.51930
C          4.03430       -5.77210       -7.01330
C          4.94180       -6.14880       -6.00290
C          6.11900       -6.78040       -6.51370
C          7.06860       -7.32080       -5.62150
C          6.88070       -7.18740       -4.27630
C          5.74100       -6.53550       -3.77060
C          4.78300       -6.03670       -4.60800
C          6.13390       -6.86290       -7.91090
S          4.66090       -6.23490       -8.56970
C          7.13060       -7.38200       -8.77930
C          8.52190       -7.27180       -8.70690
C          9.17830       -7.95860       -9.78380
C         10.59190       -7.94840       -9.86500
C         11.30660       -7.24940       -8.94180
C         10.65790       -6.51950       -7.91960
C          9.29970       -6.52160       -7.79760
C          8.28630       -8.54450      -10.65540
S          6.66640       -8.27400      -10.19740
H         -4.24710        5.05850       12.74150
H         -4.08420        6.54580       10.61050
H         -3.58410       10.95040        6.57650
H         -1.98160       10.21830        6.36760
H         -2.75570        9.12890        4.25980
H         -2.92650       10.88650        4.17300
H         -4.34480        9.87300        4.45840
H         -3.28390       -3.57580        9.79040
H         -4.71870       -3.08360        8.87080
H         -3.21550       -4.49090        7.47790
H         -3.32850       -2.85530        6.81470
H         -1.89580       -3.34500        7.72400
H         -2.67050        0.98190        6.35170
H         -2.49670        0.15660        4.17690
H         -1.79870       -5.99280        3.59940
H         -2.66570       -5.88950        2.05460
H         -3.77690       -5.03530        4.77230
H         -4.63770       -4.91110        3.23460
H         -4.22220       -6.49930        3.88850
H         -1.13500        7.42770       -2.71540
H          0.36640        6.48170       -2.72090
H         -2.02030        6.02550       -4.57730
H         -0.49040        6.78180       -5.03300
H         -0.53050        5.07480       -4.57750
H         -1.22390        1.60000       -2.68850
H          0.15620       -1.33180       -8.05450
H         -1.10870        0.71040       -8.57890
H         -2.35900        1.89480       -6.82410
H         -2.24630        1.15840       -4.48780
H          2.34930       -6.33530       -9.38010
H          0.34680       -5.97220      -10.72640
H         -1.42830       -4.44830       -9.96720
H         -1.19720       -3.21810       -7.84860
H          7.91820       -7.85730       -6.01400
H          7.60080       -7.60090       -3.58620
H          5.61380       -6.45220       -2.70190
H          3.89620       -5.58110       -4.19880
H         11.07510       -8.48570      -10.66710
H         12.38510       -7.22790       -8.99190
H         11.25850       -5.94480       -7.23040
H          8.81150       -5.94150       -7.02980
H          8.50320       -9.11150      -11.53840
