225

C         -0.02520       -1.28130       11.37880
C          0.78280       -1.58580       10.34350
C          0.13000       -2.36240        9.34240
C          0.66570       -2.88370        8.15350
C          2.03970       -2.62890        7.75280
S          3.11120       -3.94370        7.36810
C          4.44190       -2.87870        7.08680
C          5.76780       -3.38480        6.63690
C          5.89140       -3.29740        5.11320
C          4.06120       -1.58250        7.27160
Cl         5.14040       -0.25790        7.13730
C          2.69630       -1.43520        7.63520
Cl         1.94120        0.09930        7.80520
C         -0.17420       -3.67170        7.37980
C         -1.52010       -3.94620        7.72130
C         -2.05110       -3.43690        8.91850
C         -3.40820       -3.75270        9.32670
S         -4.53340       -2.51390        9.79710
C         -5.79120       -3.66220       10.10220
C         -7.15080       -3.22460       10.52200
C         -8.01280       -2.87250        9.30710
C         -5.35210       -4.92690        9.84450
C         -4.00200       -4.98280        9.40840
Cl        -3.19400       -6.46760        9.10570
Cl        -6.31760       -6.33360       10.03430
C         -1.21330       -2.63980        9.69080
S         -1.62570       -1.91890       11.22150
C         -2.18620       -4.68410        6.71080
C         -1.38880       -4.98670        5.64530
S          0.24400       -4.36980        5.84690
C         -1.70610       -5.63190        4.41750
C         -2.67970       -6.58280        4.10040
C         -2.68370       -6.92430        2.70780
C         -3.61120       -7.87460        2.23350
C         -4.47650       -8.46410        3.10900
C         -4.44990       -8.15160        4.48350
C         -3.57200       -7.23240        4.97910
C         -1.70970       -6.23280        1.97850
S         -0.79390       -5.19470        3.02010
C         -1.40450       -6.18090        0.59410
C         -0.43430       -5.37790        0.05650
C         -0.39100       -5.39020       -1.35090
C          0.44190       -4.61770       -2.17890
C          1.30050       -3.60530       -1.57710
S          3.02810       -3.57980       -1.74190
C          3.18220       -2.18390       -0.72790
C          4.51360       -1.63140       -0.35580
C          4.99680       -2.22830        0.96890
C          1.95590       -1.76890       -0.30060
Cl         1.70180       -0.40310        0.70820
C          0.88950       -2.57350       -0.77810
Cl        -0.75090       -2.23700       -0.41330
C          0.27680       -4.76970       -3.54510
C         -0.71270       -5.61360       -4.11080
C         -1.50840       -6.42730       -3.27940
C         -2.46590       -7.35750       -3.84650
S         -4.09830       -7.47410       -3.25920
C         -4.49590       -8.73050       -4.37990
C         -5.87090       -9.29670       -4.44870
C         -6.76710       -8.44980       -5.35580
C         -3.41820       -9.02930       -5.15970
C         -2.26530       -8.25670       -4.85950
Cl        -0.76040       -8.50770       -5.64580
Cl        -3.42740      -10.23240       -6.38360
C         -1.34380       -6.27440       -1.90890
S         -2.27090       -7.05860       -0.65590
C         -0.88430       -5.36130       -5.49690
C         -0.04400       -4.40950       -5.98840
S          1.07630       -3.81940       -4.76320
C         -0.17570       -3.60490       -7.16540
C          0.74460       -2.73990       -7.67780
C          0.16950       -1.65200       -8.38370
C          0.81540       -0.44220       -8.72140
C          2.24840       -0.41090       -8.89860
S          3.24910        0.89530       -8.33400
C          4.69140        0.15900       -8.94170
C          6.00970        0.83960       -8.82400
C          6.19770        1.85510       -9.95380
C          4.40010       -1.02130       -9.55980
Cl         5.57460       -2.02750      -10.30430
C          3.02140       -1.35270       -9.53250
Cl         2.40820       -2.75520      -10.30630
C          0.00830        0.69150       -8.71770
C         -1.40330        0.62490       -8.60960
C         -2.05170       -0.61850       -8.56420
C         -3.50060       -0.71380       -8.38970
S         -4.57430       -1.16330       -9.67260
C         -5.96300       -1.06450       -8.64220
C         -7.33540       -1.30100       -9.16930
C         -7.93530       -0.01090       -9.73380
C         -5.59700       -0.69710       -7.38180
C         -4.19710       -0.50290       -7.23600
Cl        -3.45480       -0.06980       -5.74800
Cl        -6.69730       -0.49400       -6.08140
C         -1.24260       -1.72760       -8.38620
S         -1.80560       -3.24370       -7.72970
C         -1.97180        1.86290       -8.21470
C         -1.03570        2.81560       -7.94110
S          0.57180        2.32660       -8.48020
C         -1.11480        3.75220       -6.85440
C         -1.75340        3.38920       -5.70300
C         -1.28650        4.06870       -4.55680
C         -1.52980        3.69730       -3.22350
C         -2.51070        2.67560       -2.90540
S         -2.09420        1.27710       -1.95860
C         -3.68870        0.61590       -2.09330
C         -4.03860       -0.67110       -1.43230
C         -4.00550       -0.53860        0.09080
C         -4.48710        1.44640       -2.82170
Cl        -6.14370        1.14730       -3.14690
C         -3.81880        2.60610       -3.29740
Cl        -4.60990        3.81850       -4.21690
C         -0.70160        4.26300       -2.26600
C          0.24620        5.27150       -2.56710
C          0.41380        5.71440       -3.89490
C          1.34720        6.78010       -4.20590
S          2.52430        6.63860       -5.47770
C          3.15980        8.21850       -5.17090
C          4.25170        8.78410       -6.00980
C          3.69230        9.36650       -7.31000
C          2.47950        8.81520       -4.15120
C          1.45640        8.00160       -3.59660
Cl         0.41840        8.55490       -2.34660
Cl         2.81420       10.39490       -3.57090
C         -0.30040        5.03270       -4.87420
S         -0.01900        5.09260       -6.59900
C          1.03940        5.59340       -1.43540
C          0.73460        4.85330       -0.33310
S         -0.61280        3.76930       -0.60200
C          1.42730        4.79680        0.91480
C          1.46130        3.74170        1.77590
C          2.30610        3.95380        2.89320
C          2.59260        3.06870        3.94330
C          2.05030        1.71680        3.97860
S          0.33980        1.40820        3.98130
C          0.56830       -0.30780        4.04190
C         -0.59310       -1.23760        4.08070
C         -1.40920       -1.05290        5.36010
C          1.89690       -0.60570        4.06140
Cl         2.51720       -2.20470        4.10760
C          2.73950        0.53760        4.02060
Cl         4.44450        0.42350        3.93110
C          3.43440        3.53590        4.94500
C          4.01870        4.82510        4.92740
C          3.77610        5.68850        3.84830
C          4.37140        7.01440        3.78050
S          4.15070        8.16870        5.06240
C          5.05900        9.38550        4.23180
C          5.22520       10.75010        4.80330
C          4.03220       11.64000        4.44610
C          5.49570        8.91130        3.03150
C          5.11080        7.56790        2.77320
Cl         5.60920        6.72460        1.36740
Cl         6.43250        9.82830        1.92440
C          2.92030        5.23040        2.85450
S          2.43340        6.12570        1.44300
C          4.83170        5.04610        6.07660
C          4.83850        3.99450        6.92200
S          3.87680        2.66720        6.38220
H          0.21360       -0.71180       12.25560
H          1.81250       -1.28680       10.28300
H          6.55140       -2.78070        7.09940
H          5.88780       -4.42090        6.95640
H          6.86450       -3.66260        4.79570
H          5.12000       -3.89690        4.63610
H          5.78080       -2.26760        4.78450
H         -7.62250       -4.03400       11.08230
H         -7.06480       -2.35200       11.17160
H         -9.00000       -2.55370        9.63010
H         -7.55320       -2.06690        8.73950
H         -8.12100       -3.73790        8.65800
H         -3.23420       -4.91410        6.74570
H         -3.62280       -8.13230        1.18620
H         -5.18720       -9.19440        2.75300
H         -5.13350       -8.65730        5.14860
H         -3.53480       -7.01300        6.03390
H          0.22490       -4.78230        0.66190
H          4.42970       -0.54710       -0.25440
H          5.23350       -1.85530       -1.14440
H          4.28820       -2.00880        1.76290
H          5.96090       -1.80580        1.23860
H          5.09940       -3.30750        0.88370
H         -6.29820       -9.33100       -3.44520
H         -5.81160      -10.31380       -4.84050
H         -7.76580       -8.87610       -5.39630
H         -6.83530       -7.43330       -4.97560
H         -6.36060       -8.41790       -6.36350
H         -1.65590       -5.81390       -6.09350
H          1.79090       -2.79960       -7.43550
H          6.06820        1.35220       -7.86240
H          6.79950        0.08770       -8.87100
H          6.15430        1.35690      -10.91900
H          5.41530        2.60910       -9.91520
H          7.16240        2.34580       -9.85800
H         -7.29690       -2.05850       -9.95370
H         -7.96340       -1.66950       -8.35590
H         -7.99150        0.74870       -8.95840
H         -8.93700       -0.19890      -10.11060
H         -7.32090        0.36680      -10.54760
H         -3.01770        1.98530       -8.00080
H         -2.42810        2.55530       -5.65420
H         -3.32700       -1.44120       -1.74050
H         -5.03500       -0.97130       -1.76070
H         -4.25470       -1.49000        0.55350
H         -3.01270       -0.23920        0.41880
H         -4.72080        0.21030        0.42200
H          4.97210        7.99870       -6.24510
H          4.75850        9.56780       -5.44400
H          3.18370        8.59290       -7.88030
H          2.98340       10.16130       -7.09220
H          4.49840        9.77450       -7.91370
H          1.85520        6.29310       -1.45270
H          0.91390        2.83280        1.60240
H         -1.23350       -1.05610        3.21370
H         -0.21730       -2.26070        4.01920
H         -1.83270       -0.05190        5.39600
H         -2.21930       -1.77700        5.39780
H         -0.77940       -1.19130        6.23600
H          5.31460       10.68070        5.88880
H          6.14120       11.18820        4.40260
H          4.16800       12.63290        4.86610
H          3.93770       11.72740        3.36670
H          3.11280       11.21530        4.84220
H          5.37950        5.95360        6.25060
H          5.36270        3.90240        7.85330
