196

C          3.12900      -11.16600       15.41920
C          4.46180      -10.92200       15.16230
C          4.68750      -10.46700       13.81800
C          6.01630      -10.23540       13.39950
C          7.04190      -10.39990       14.28330
C          6.81100      -10.80690       15.61620
C          5.55060      -11.07560       16.05310
C          3.49550      -10.36100       13.09450
S          2.14700      -10.85350       14.06730
C          3.25010       -9.89610       11.77090
C          4.03520       -9.13260       10.95340
C          3.42730       -8.80720        9.71820
C          3.93590       -7.99740        8.68890
C          5.20660       -7.30060        8.80190
S          6.39570       -7.39030        7.53600
C          7.45440       -6.28380        8.34180
C          8.72060       -5.83510        7.70060
C          8.43570       -4.78770        6.62100
C          6.90620       -5.87990        9.52210
Cl         7.65700       -4.77570       10.60080
C          5.63390       -6.45540        9.78830
Cl         4.70750       -6.03320       11.17160
C          3.14010       -7.83830        7.56190
C          1.85050       -8.40680        7.43210
C          1.33760       -9.21090        8.46640
C          0.01350       -9.80540        8.38050
S         -1.39650       -8.83400        8.07230
C         -2.45530      -10.19920        8.16340
C         -3.92990      -10.04520        8.02810
C         -4.57050       -9.71240        9.37790
C         -1.74410      -11.33220        8.42280
C         -0.34530      -11.11460        8.54330
Cl         0.76540      -12.39760        8.78050
Cl        -2.44940      -12.88850        8.58030
C          2.14130       -9.38990        9.58390
S          1.70710      -10.27170       11.01680
C          1.23090       -8.03750        6.21220
C          1.99720       -7.21260        5.44380
S          3.54800       -6.86300        6.18200
C          1.66500       -6.56160        4.22080
C          2.48990       -5.77080        3.47700
C          1.83580       -5.11730        2.40750
C          2.38570       -4.21020        1.48570
C          3.77730       -3.80030        1.57130
S          4.82780       -3.88920        0.18850
C          6.18050       -3.28060        1.07780
C          7.52380       -3.14550        0.45010
C          8.34090       -4.42800        0.62440
C          5.82450       -3.03120        2.36980
Cl         6.90440       -2.42820        3.55920
C          4.46160       -3.31480        2.65230
Cl         3.75530       -2.98280        4.18220
C          1.53050       -3.70600        0.51610
C          0.15940       -4.05240        0.44220
C         -0.39090       -4.96130        1.36460
C         -1.79310       -5.33830        1.29590
S         -2.47380       -5.95950       -0.18040
C         -4.03740       -6.16600        0.53250
C         -5.16690       -6.74780       -0.24340
C         -5.03960       -8.26960       -0.34260
C         -4.01460       -5.77730        1.83810
C         -2.74730       -5.30320        2.27430
Cl        -2.50070       -4.67010        3.84750
Cl        -5.37840       -5.83220        2.87780
C          0.46370       -5.46880        2.33420
S          0.03420       -6.59990        3.58670
C         -0.51750       -3.30740       -0.55360
C          0.28720       -2.43040       -1.21870
S          1.94980       -2.50390       -0.67030
C         -0.10460       -1.43880       -2.16390
C          0.69020       -0.52110       -2.78350
C         -0.03440        0.45220       -3.51310
C          0.46630        1.56220       -4.21490
C          1.89030        1.84690       -4.28100
S          2.67750        2.09550       -5.81090
C          4.21400        2.37040       -5.06410
C          5.41040        2.71880       -5.87860
C          5.38090        4.19460       -6.28340
C          4.10410        2.28230       -3.70870
Cl         5.41540        2.50230       -2.62370
C          2.78930        1.98220       -3.25990
Cl         2.38430        1.89440       -1.59330
C         -0.46440        2.40000       -4.81290
C         -1.86150        2.17750       -4.74870
C         -2.35960        1.03180       -4.10160
C         -3.77800        0.72510       -4.09970
S         -4.61470        0.28390       -2.64100
C         -6.11680        0.06970       -3.47320
C         -7.33000       -0.40130       -2.75070
C         -7.24340       -1.90260       -2.46590
C         -5.96150        0.32270       -4.80340
C         -4.63970        0.69890       -5.16300
Cl        -4.18070        0.98920       -6.79140
Cl        -7.22720        0.20610       -5.95650
C         -1.43100        0.21750       -3.46600
S         -1.80320       -1.19720       -2.52240
C         -2.59160        3.25400       -5.30860
C         -1.80160        4.25000       -5.80120
S         -0.09450        3.89830       -5.61750
C         -2.21150        5.49280       -6.36360
C         -1.41190        6.50290       -6.81000
C         -2.12980        7.63700       -7.25930
C         -1.61500        8.86260       -7.72030
C         -0.18310        9.08210       -7.83850
S          0.82630        7.98910       -8.74040
C          2.25380        8.91140       -8.41540
C          3.57410        8.51680       -8.97920
C          3.74910        9.06310      -10.39810
C          1.94850       10.00300       -7.65940
Cl         3.10570       11.15540       -7.13340
C          0.57040       10.10190       -7.32670
Cl        -0.03860       11.33570       -6.30560
C         -2.53540        9.84550       -8.05700
C         -3.93620        9.66390       -7.93810
C         -4.44780        8.45360       -7.43740
C         -5.87290        8.27400       -7.22190
S         -6.72870        6.89450       -7.84320
C         -8.23220        7.42630       -7.17120
C         -9.49070        6.66240       -7.39260
C        -10.14320        7.05340       -8.72080
C         -8.06570        8.60740       -6.51150
C         -6.72960        9.08760       -6.53210
Cl        -6.24580       10.50180       -5.68690
Cl        -9.33280        9.44670       -5.71360
C         -3.52860        7.45880       -7.13250
S         -3.91420        5.88980       -6.48330
C         -4.66030       10.78670       -8.40450
C         -3.86760       11.81160       -8.83680
S         -2.16200       11.40720       -8.72170
C         -4.25250       13.08910       -9.33580
C         -5.41610       13.82320       -9.09350
C         -5.42750       15.06660       -9.81240
C         -6.53230       15.94320       -9.69080
C         -7.56310       15.60380       -8.86990
C         -7.53310       14.40220       -8.12640
C         -6.49140       13.52840       -8.22630
C         -4.28290       15.25110      -10.55910
S         -3.19440       13.95300      -10.40170
H          2.68930      -11.50790       16.33490
H          6.22010       -9.95170       12.38030
H          8.05810      -10.22270       13.96370
H          7.65390      -10.91580       16.28210
H          5.35890      -11.40740       17.06230
H          5.00750       -8.77450       11.22900
H          9.22450       -6.69180        7.24900
H          9.37090       -5.40910        8.46640
H          7.78450       -5.20290        5.85530
H          9.36390       -4.46730        6.15540
H          7.94710       -3.91960        7.05610
H         -4.14730       -9.24780        7.31550
H         -4.34600      -10.98000        7.64740
H         -5.64620       -9.60860        9.26490
H         -4.36950      -10.50380       10.09540
H         -4.16820       -8.78000        9.76680
H          0.24880       -8.35760        5.91430
H          3.53470       -5.66010        3.70100
H          8.04950       -2.31260        0.92110
H          7.40500       -2.92960       -0.61260
H          8.47850       -4.64570        1.68040
H          7.82930       -5.26740        0.15960
H          9.31730       -4.31390        0.16150
H         -5.17620       -6.31960       -1.24760
H         -6.10190       -6.48870        0.25640
H         -5.03700       -8.71340        0.64980
H         -5.87480       -8.67810       -0.90500
H         -4.11390       -8.53820       -0.84610
H         -1.57130       -3.38640       -0.75110
H          1.76130       -0.53620       -2.70020
H          5.43200        2.09820       -6.77630
H          6.30650        2.51550       -5.29000
H          6.25480        4.43520       -6.88260
H          5.37860        4.82770       -5.39970
H          4.48660        4.40660       -6.86480
H         -7.42510        0.13980       -1.80740
H         -8.20710       -0.19130       -3.36490
H         -6.37070       -2.11930       -1.85420
H         -7.16260       -2.45890       -3.39660
H         -8.13290       -2.23440       -1.93740
H         -3.66480        3.31370       -5.31460
H         -0.33910        6.43530       -6.79990
H          3.64970        7.42810       -8.99660
H          4.36120        8.91320       -8.33520
H          3.68890       10.14840      -10.39370
H          2.97080        8.67430      -11.05050
H          4.71710        8.76900      -10.79460
H        -10.17820        6.87440       -6.57150
H         -9.26870        5.59400       -7.39730
H        -11.06100        6.49020       -8.86550
H        -10.38060        8.11430       -8.72620
H         -9.46940        6.84310       -9.54790
H         -5.73120       10.80380       -8.47070
H         -6.53100       16.86910      -10.24590
H         -8.41310       16.26120       -8.76330
H         -8.35440       14.18300       -7.46050
H         -6.47040       12.63220       -7.62880
H         -4.03610       16.08360      -11.18750
