
  xtb     03012205303D
 energy: -259.659365226475 gnorm: 0.000680991751 xtb: 6.4.1 (unknown)
138155  0     0  0            999 V2000
    3.6490   -0.6209   11.7542 C   0  0  0  0  0  0  0  0  0  0  0  0
    3.4216    0.7019   11.6223 C   0  0  0  0  0  0  0  0  0  0  0  0
    2.7771    1.0323   10.3953 C   0  0  0  0  0  0  0  0  0  0  0  0
    2.3498    2.2937    9.9475 C   0  0  0  0  0  0  0  0  0  0  0  0
    2.6677    3.5053   10.6846 C   0  0  0  0  0  0  0  0  0  0  0  0
    1.4428    4.6556   11.1272 S   0  0  0  0  0  0  0  0  0  0  0  0
    2.5921    5.7062   11.8819 C   0  0  0  0  0  0  0  0  0  0  0  0
    2.1731    7.0070   12.4725 C   0  0  0  0  0  0  0  0  0  0  0  0
    2.0281    8.0763   11.3872 C   0  0  0  0  0  0  0  0  0  0  0  0
    3.8484    5.1883   11.7774 C   0  0  0  0  0  0  0  0  0  0  0  0
    5.2547    5.9531   12.3953 Cl  0  0  0  0  0  0  0  0  0  0  0  0
    3.8950    3.9380   11.1041 C   0  0  0  0  0  0  0  0  0  0  0  0
    5.3669    3.1126   10.7890 Cl  0  0  0  0  0  0  0  0  0  0  0  0
    1.6274    2.3297    8.7644 C   0  0  0  0  0  0  0  0  0  0  0  0
    1.3645    1.1788    7.9832 C   0  0  0  0  0  0  0  0  0  0  0  0
    1.8389   -0.0766    8.4034 C   0  0  0  0  0  0  0  0  0  0  0  0
    1.6046   -1.2733    7.6137 C   0  0  0  0  0  0  0  0  0  0  0  0
    0.0013   -1.7268    7.1135 S   0  0  0  0  0  0  0  0  0  0  0  0
    0.5673   -3.1504    6.3088 C   0  0  0  0  0  0  0  0  0  0  0  0
   -0.3684   -4.0348    5.5615 C   0  0  0  0  0  0  0  0  0  0  0  0
   -0.6637   -3.4669    4.1711 C   0  0  0  0  0  0  0  0  0  0  0  0
    1.9212   -3.2498    6.4230 C   0  0  0  0  0  0  0  0  0  0  0  0
    2.5123   -2.1930    7.1669 C   0  0  0  0  0  0  0  0  0  0  0  0
    4.2062   -2.0612    7.3883 Cl  0  0  0  0  0  0  0  0  0  0  0  0
    2.8476   -4.5237    5.7425 Cl  0  0  0  0  0  0  0  0  0  0  0  0
    2.5232   -0.1190    9.6127 C   0  0  0  0  0  0  0  0  0  0  0  0
    3.1035   -1.5556   10.4059 S   0  0  0  0  0  0  0  0  0  0  0  0
    0.6535    1.4937    6.8051 C   0  0  0  0  0  0  0  0  0  0  0  0
    0.3533    2.8245    6.6673 C   0  0  0  0  0  0  0  0  0  0  0  0
    0.9729    3.7604    8.0178 S   0  0  0  0  0  0  0  0  0  0  0  0
   -0.3588    3.3948    5.5828 C   0  0  0  0  0  0  0  0  0  0  0  0
   -0.7540    4.7125    5.3158 C   0  0  0  0  0  0  0  0  0  0  0  0
   -1.4553    4.8426    4.0746 C   0  0  0  0  0  0  0  0  0  0  0  0
   -1.7983    6.1250    3.5999 C   0  0  0  0  0  0  0  0  0  0  0  0
   -1.5318    7.2211    4.3688 C   0  0  0  0  0  0  0  0  0  0  0  0
   -0.9163    7.0869    5.6281 C   0  0  0  0  0  0  0  0  0  0  0  0
   -0.5209    5.8658    6.0934 C   0  0  0  0  0  0  0  0  0  0  0  0
   -1.6302    3.6172    3.4150 C   0  0  0  0  0  0  0  0  0  0  0  0
   -0.8618    2.3387    4.2988 S   0  0  0  0  0  0  0  0  0  0  0  0
   -2.2769    3.3235    2.1920 C   0  0  0  0  0  0  0  0  0  0  0  0
   -3.4529    3.8520    1.6371 C   0  0  0  0  0  0  0  0  0  0  0  0
   -3.7687    3.2888    0.3614 C   0  0  0  0  0  0  0  0  0  0  0  0
   -4.9930    3.6173   -0.2545 C   0  0  0  0  0  0  0  0  0  0  0  0
   -5.8407    4.4989    0.3546 C   0  0  0  0  0  0  0  0  0  0  0  0
   -5.5260    5.0593    1.6065 C   0  0  0  0  0  0  0  0  0  0  0  0
   -4.3663    4.7337    2.2505 C   0  0  0  0  0  0  0  0  0  0  0  0
   -2.8273    2.3352   -0.0627 C   0  0  0  0  0  0  0  0  0  0  0  0
   -1.6243    2.0848    1.1655 S   0  0  0  0  0  0  0  0  0  0  0  0
   -2.7573    1.5809   -1.2531 C   0  0  0  0  0  0  0  0  0  0  0  0
   -3.1024    1.9197   -2.5711 C   0  0  0  0  0  0  0  0  0  0  0  0
   -2.9054    0.8467   -3.4941 C   0  0  0  0  0  0  0  0  0  0  0  0
   -3.2792    1.0363   -4.8384 C   0  0  0  0  0  0  0  0  0  0  0  0
   -3.7297    2.2576   -5.2565 C   0  0  0  0  0  0  0  0  0  0  0  0
   -3.8017    3.3452   -4.3692 C   0  0  0  0  0  0  0  0  0  0  0  0
   -3.5011    3.1847   -3.0464 C   0  0  0  0  0  0  0  0  0  0  0  0
   -2.3501   -0.3069   -2.8981 C   0  0  0  0  0  0  0  0  0  0  0  0
   -2.1159   -0.0309   -1.1958 S   0  0  0  0  0  0  0  0  0  0  0  0
   -1.9203   -1.5052   -3.5014 C   0  0  0  0  0  0  0  0  0  0  0  0
   -1.5715   -2.7370   -2.9033 C   0  0  0  0  0  0  0  0  0  0  0  0
   -1.0787   -3.6980   -3.8418 C   0  0  0  0  0  0  0  0  0  0  0  0
   -0.7583   -4.9989   -3.4034 C   0  0  0  0  0  0  0  0  0  0  0  0
   -0.8798   -5.3166   -2.0807 C   0  0  0  0  0  0  0  0  0  0  0  0
   -1.3464   -4.3693   -1.1539 C   0  0  0  0  0  0  0  0  0  0  0  0
   -1.7013   -3.1104   -1.5529 C   0  0  0  0  0  0  0  0  0  0  0  0
   -1.0315   -3.2023   -5.1521 C   0  0  0  0  0  0  0  0  0  0  0  0
   -1.6467   -1.5877   -5.2153 S   0  0  0  0  0  0  0  0  0  0  0  0
   -0.5709   -3.8111   -6.3474 C   0  0  0  0  0  0  0  0  0  0  0  0
    0.3077   -4.8473   -6.5097 C   0  0  0  0  0  0  0  0  0  0  0  0
    0.5383   -5.1942   -7.8612 C   0  0  0  0  0  0  0  0  0  0  0  0
    1.3981   -6.1878   -8.3604 C   0  0  0  0  0  0  0  0  0  0  0  0
    2.1293   -7.0633   -7.4608 C   0  0  0  0  0  0  0  0  0  0  0  0
    1.3012   -7.9568   -6.2171 S   0  0  0  0  0  0  0  0  0  0  0  0
    2.7646   -8.6958   -5.6583 C   0  0  0  0  0  0  0  0  0  0  0  0
    2.7577   -9.6159   -4.4881 C   0  0  0  0  0  0  0  0  0  0  0  0
    2.4614   -8.8577   -3.1927 C   0  0  0  0  0  0  0  0  0  0  0  0
    3.8222   -8.2611   -6.3983 C   0  0  0  0  0  0  0  0  0  0  0  0
    5.4443   -8.7601   -6.1411 Cl  0  0  0  0  0  0  0  0  0  0  0  0
    3.4668   -7.3410   -7.4228 C   0  0  0  0  0  0  0  0  0  0  0  0
    4.6361   -6.5987   -8.4315 Cl  0  0  0  0  0  0  0  0  0  0  0  0
    1.4938   -6.3032   -9.7428 C   0  0  0  0  0  0  0  0  0  0  0  0
    0.7806   -5.4682  -10.6351 C   0  0  0  0  0  0  0  0  0  0  0  0
   -0.0798   -4.4768  -10.1358 C   0  0  0  0  0  0  0  0  0  0  0  0
   -0.8260   -3.5967  -11.0217 C   0  0  0  0  0  0  0  0  0  0  0  0
   -0.0184   -2.6249  -12.2166 S   0  0  0  0  0  0  0  0  0  0  0  0
   -1.5000   -1.9052  -12.7483 C   0  0  0  0  0  0  0  0  0  0  0  0
   -1.5147   -0.8567  -13.8052 C   0  0  0  0  0  0  0  0  0  0  0  0
   -1.2454    0.5261  -13.2070 C   0  0  0  0  0  0  0  0  0  0  0  0
   -2.5478   -2.3957  -12.0286 C   0  0  0  0  0  0  0  0  0  0  0  0
   -2.1710   -3.3563  -11.0515 C   0  0  0  0  0  0  0  0  0  0  0  0
   -3.3185   -4.1767  -10.0784 Cl  0  0  0  0  0  0  0  0  0  0  0  0
   -4.1791   -1.9216  -12.2706 Cl  0  0  0  0  0  0  0  0  0  0  0  0
   -0.1821   -4.3655   -8.7563 C   0  0  0  0  0  0  0  0  0  0  0  0
   -1.1305   -3.1898   -7.8954 S   0  0  0  0  0  0  0  0  0  0  0  0
    1.0192   -5.8257  -11.9937 C   0  0  0  0  0  0  0  0  0  0  0  0
    1.8580   -6.8746  -12.1191 C   0  0  0  0  0  0  0  0  0  0  0  0
    2.4194   -7.4970  -10.6074 S   0  0  0  0  0  0  0  0  0  0  0  0
    4.1137   -1.1308   12.5753 H   0  0  0  0  0  0  0  0  0  0  0  0
    3.6793    1.4280   12.3710 H   0  0  0  0  0  0  0  0  0  0  0  0
    2.9249    7.3202   13.1989 H   0  0  0  0  0  0  0  0  0  0  0  0
    1.2187    6.8813   12.9869 H   0  0  0  0  0  0  0  0  0  0  0  0
    1.7156    9.0180   11.8303 H   0  0  0  0  0  0  0  0  0  0  0  0
    1.2854    7.7697   10.6544 H   0  0  0  0  0  0  0  0  0  0  0  0
    2.9766    8.2279   10.8784 H   0  0  0  0  0  0  0  0  0  0  0  0
    0.0857   -5.0226    5.4664 H   0  0  0  0  0  0  0  0  0  0  0  0
   -1.3016   -4.1302    6.1196 H   0  0  0  0  0  0  0  0  0  0  0  0
   -1.3516   -4.1194    3.6401 H   0  0  0  0  0  0  0  0  0  0  0  0
   -1.1124   -2.4797    4.2541 H   0  0  0  0  0  0  0  0  0  0  0  0
    0.2542   -3.3839    3.5947 H   0  0  0  0  0  0  0  0  0  0  0  0
    0.3686    0.7631    6.0699 H   0  0  0  0  0  0  0  0  0  0  0  0
   -2.2451    6.2281    2.6235 H   0  0  0  0  0  0  0  0  0  0  0  0
   -1.7873    8.2069    4.0104 H   0  0  0  0  0  0  0  0  0  0  0  0
   -0.7364    7.9714    6.2204 H   0  0  0  0  0  0  0  0  0  0  0  0
   -0.0235    5.7785    7.0455 H   0  0  0  0  0  0  0  0  0  0  0  0
   -5.2680    3.1399   -1.1816 H   0  0  0  0  0  0  0  0  0  0  0  0
   -6.7821    4.7488   -0.1111 H   0  0  0  0  0  0  0  0  0  0  0  0
   -6.2314    5.7295    2.0742 H   0  0  0  0  0  0  0  0  0  0  0  0
   -4.1583    5.1122    3.2388 H   0  0  0  0  0  0  0  0  0  0  0  0
   -3.2177    0.2204   -5.5393 H   0  0  0  0  0  0  0  0  0  0  0  0
   -4.0161    2.3983   -6.2876 H   0  0  0  0  0  0  0  0  0  0  0  0
   -4.1030    4.3127   -4.7415 H   0  0  0  0  0  0  0  0  0  0  0  0
   -3.5430    4.0192   -2.3642 H   0  0  0  0  0  0  0  0  0  0  0  0
   -0.4515   -5.7442   -4.1184 H   0  0  0  0  0  0  0  0  0  0  0  0
   -0.6356   -6.3116   -1.7398 H   0  0  0  0  0  0  0  0  0  0  0  0
   -1.4468   -4.6507   -0.1166 H   0  0  0  0  0  0  0  0  0  0  0  0
   -2.0995   -2.4150   -0.8329 H   0  0  0  0  0  0  0  0  0  0  0  0
    0.8270   -5.3116   -5.6939 H   0  0  0  0  0  0  0  0  0  0  0  0
    3.7340  -10.0983   -4.4214 H   0  0  0  0  0  0  0  0  0  0  0  0
    1.9981  -10.3871   -4.6354 H   0  0  0  0  0  0  0  0  0  0  0  0
    2.4612   -9.5435   -2.3498 H   0  0  0  0  0  0  0  0  0  0  0  0
    1.4877   -8.3767   -3.2530 H   0  0  0  0  0  0  0  0  0  0  0  0
    3.2159   -8.0941   -3.0203 H   0  0  0  0  0  0  0  0  0  0  0  0
   -2.4933   -0.8615  -14.2889 H   0  0  0  0  0  0  0  0  0  0  0  0
   -0.7525   -1.0837  -14.5527 H   0  0  0  0  0  0  0  0  0  0  0  0
   -1.2668    1.2814  -13.9879 H   0  0  0  0  0  0  0  0  0  0  0  0
   -2.0020    0.7690  -12.4654 H   0  0  0  0  0  0  0  0  0  0  0  0
   -0.2696    0.5460  -12.7274 H   0  0  0  0  0  0  0  0  0  0  0  0
    0.5706   -5.3180  -12.8276 H   0  0  0  0  0  0  0  0  0  0  0  0
    2.1986   -7.3413  -13.0225 H   0  0  0  0  0  0  0  0  0  0  0  0
  1  2  2  0  0  0  0
  2  3  1  0  0  0  0
  3  4  2  0  0  0  0
  4  5  1  0  0  0  0
  5  6  1  0  0  0  0
  6  7  1  0  0  0  0
  7  8  1  0  0  0  0
  8  9  1  0  0  0  0
  7 10  2  0  0  0  0
 10 11  1  0  0  0  0
 10 12  1  0  0  0  0
 12 13  1  0  0  0  0
  4 14  1  0  0  0  0
 14 15  2  0  0  0  0
 15 16  1  0  0  0  0
 16 17  1  0  0  0  0
 17 18  1  0  0  0  0
 18 19  1  0  0  0  0
 19 20  1  0  0  0  0
 20 21  1  0  0  0  0
 19 22  2  0  0  0  0
 22 23  1  0  0  0  0
 23 24  1  0  0  0  0
 22 25  1  0  0  0  0
 16 26  2  0  0  0  0
 26 27  1  0  0  0  0
 15 28  1  0  0  0  0
 28 29  2  0  0  0  0
 29 30  1  0  0  0  0
 29 31  1  0  0  0  0
 31 32  2  0  0  0  0
 32 33  1  0  0  0  0
 33 34  1  0  0  0  0
 34 35  2  0  0  0  0
 35 36  1  0  0  0  0
 36 37  2  0  0  0  0
 33 38  2  0  0  0  0
 38 39  1  0  0  0  0
 38 40  1  0  0  0  0
 40 41  2  0  0  0  0
 41 42  1  0  0  0  0
 42 43  1  0  0  0  0
 43 44  2  0  0  0  0
 44 45  1  0  0  0  0
 45 46  2  0  0  0  0
 42 47  2  0  0  0  0
 47 48  1  0  0  0  0
 47 49  1  0  0  0  0
 49 50  2  0  0  0  0
 50 51  1  0  0  0  0
 51 52  1  0  0  0  0
 52 53  2  0  0  0  0
 53 54  1  0  0  0  0
 54 55  2  0  0  0  0
 51 56  2  0  0  0  0
 56 57  1  0  0  0  0
 56 58  1  0  0  0  0
 58 59  2  0  0  0  0
 59 60  1  0  0  0  0
 60 61  1  0  0  0  0
 61 62  2  0  0  0  0
 62 63  1  0  0  0  0
 63 64  2  0  0  0  0
 60 65  2  0  0  0  0
 65 66  1  0  0  0  0
 65 67  1  0  0  0  0
 67 68  2  0  0  0  0
 68 69  1  0  0  0  0
 69 70  2  0  0  0  0
 70 71  1  0  0  0  0
 71 72  1  0  0  0  0
 72 73  1  0  0  0  0
 73 74  1  0  0  0  0
 74 75  1  0  0  0  0
 73 76  2  0  0  0  0
 76 77  1  0  0  0  0
 76 78  1  0  0  0  0
 78 79  1  0  0  0  0
 70 80  1  0  0  0  0
 80 81  2  0  0  0  0
 81 82  1  0  0  0  0
 82 83  1  0  0  0  0
 83 84  1  0  0  0  0
 84 85  1  0  0  0  0
 85 86  1  0  0  0  0
 86 87  1  0  0  0  0
 85 88  2  0  0  0  0
 88 89  1  0  0  0  0
 89 90  1  0  0  0  0
 88 91  1  0  0  0  0
 82 92  2  0  0  0  0
 92 93  1  0  0  0  0
 81 94  1  0  0  0  0
 94 95  2  0  0  0  0
 95 96  1  0  0  0  0
 27  1  1  0  0  0  0
 39 31  1  0  0  0  0
 48 40  1  0  0  0  0
 57 49  1  0  0  0  0
 66 58  1  0  0  0  0
 93 67  1  0  0  0  0
 26  3  1  0  0  0  0
 37 32  1  0  0  0  0
 46 41  1  0  0  0  0
 55 50  1  0  0  0  0
 64 59  1  0  0  0  0
 92 69  1  0  0  0  0
 12  5  2  0  0  0  0
 30 14  1  0  0  0  0
 78 71  2  0  0  0  0
 96 80  1  0  0  0  0
 23 17  2  0  0  0  0
 89 83  2  0  0  0  0
  1 97  1  0  0  0  0
  2 98  1  0  0  0  0
  8 99  1  0  0  0  0
  8100  1  0  0  0  0
  9101  1  0  0  0  0
  9102  1  0  0  0  0
  9103  1  0  0  0  0
 20104  1  0  0  0  0
 20105  1  0  0  0  0
 21106  1  0  0  0  0
 21107  1  0  0  0  0
 21108  1  0  0  0  0
 28109  1  0  0  0  0
 34110  1  0  0  0  0
 35111  1  0  0  0  0
 36112  1  0  0  0  0
 37113  1  0  0  0  0
 43114  1  0  0  0  0
 44115  1  0  0  0  0
 45116  1  0  0  0  0
 46117  1  0  0  0  0
 52118  1  0  0  0  0
 53119  1  0  0  0  0
 54120  1  0  0  0  0
 55121  1  0  0  0  0
 61122  1  0  0  0  0
 62123  1  0  0  0  0
 63124  1  0  0  0  0
 64125  1  0  0  0  0
 68126  1  0  0  0  0
 74127  1  0  0  0  0
 74128  1  0  0  0  0
 75129  1  0  0  0  0
 75130  1  0  0  0  0
 75131  1  0  0  0  0
 86132  1  0  0  0  0
 86133  1  0  0  0  0
 87134  1  0  0  0  0
 87135  1  0  0  0  0
 87136  1  0  0  0  0
 94137  1  0  0  0  0
 95138  1  0  0  0  0
M  END
