167

C          2.92240      -11.19260       12.21650
C          2.23450      -10.04160       12.36020
C          1.91790       -9.42770       11.11320
C          1.23980       -8.22110       10.88360
C          0.75930       -7.38900       11.97600
S          1.83440       -6.83530       13.22610
C          0.58580       -5.92800       14.00940
C          0.87180       -5.10450       15.21620
C          1.43670       -3.73730       14.82360
C         -0.58710       -6.05400       13.32770
Cl        -2.05380       -5.29940       13.80000
C         -0.49430       -6.88250       12.17660
Cl        -1.85380       -7.25670       11.20270
C          1.08090       -7.82770        9.56040
C          1.56520       -8.58710        8.46680
C          2.21350       -9.81220        8.69540
C          2.70040      -10.62880        7.59520
S          3.76860       -9.98190        6.38350
C          3.85530      -11.48990        5.53850
C          4.70730      -11.65220        4.32840
C          6.14190      -12.02090        4.71360
C          3.10290      -12.43100        6.17470
C          2.44380      -11.94670        7.33690
Cl         1.36690      -12.91720        8.25010
Cl         2.93990      -14.05030        5.63280
C          2.38100      -10.19910       10.02020
S          3.22230      -11.62040       10.56900
C          1.30660       -7.95110        7.22760
C          0.67540       -6.74890        7.35600
S          0.34320       -6.34750        9.02450
C          0.31270       -5.84650        6.30940
C          0.79700       -5.83010        5.03370
C          0.27100       -4.77980        4.24470
C          0.55150       -4.47860        2.89800
C          1.50530       -5.25850        2.12760
S          3.11570       -5.55160        2.71910
C          3.56340       -6.43660        1.30100
C          4.94240       -6.97100        1.12990
C          5.87790       -5.89740        0.56890
C          2.51950       -6.48600        0.42690
Cl         2.58260       -7.27980       -1.09300
C          1.35120       -5.82360        0.89180
Cl        -0.11580       -5.82950        0.00700
C         -0.09900       -3.38240        2.35090
C         -1.03700       -2.59850        3.07000
C         -1.36010       -2.93620        4.39740
C         -2.37870       -2.21280        5.13660
S         -2.08370       -1.60360        6.73830
C         -3.68860       -0.97340        6.87960
C         -4.15230       -0.32570        8.13710
C         -4.60690       -1.37830        9.15140
C         -4.40220       -1.23490        5.74810
C         -3.66330       -1.93310        4.75610
Cl        -4.36790       -2.44370        3.27530
Cl        -6.03950       -0.77280        5.52000
C         -0.66630       -3.99840        4.96280
S         -0.84880       -4.57080        6.59570
C         -1.49700       -1.49310        2.32030
C         -0.95460       -1.40900        1.06530
S          0.16630       -2.73200        0.76240
C         -1.18370       -0.47710        0.02180
C         -1.80000        0.78330        0.01920
C         -1.86430        1.36560       -1.28630
C         -2.51650        2.60150       -1.45380
C         -3.02760        3.25690       -0.36870
C         -2.89450        2.72140        0.92340
C         -2.29890        1.50820        1.12030
C         -1.27170        0.56170       -2.28410
S         -0.67010       -0.90350       -1.57590
C         -1.07130        0.83590       -3.65240
C         -0.76520       -0.05090       -4.70660
C         -0.54520        0.61330       -5.95310
C         -0.36810       -0.14470       -7.12810
C         -0.33890       -1.50810       -7.05360
C         -0.50660       -2.16360       -5.82140
C         -0.73160       -1.45810       -4.67220
C         -0.64030        2.00950       -5.85370
S         -1.09570        2.47020       -4.24590
C         -0.46350        3.01230       -6.83530
C          0.44780        3.07950       -7.90070
C          0.28470        4.25520       -8.70120
C          1.08630        4.40620       -9.85290
C          2.06360        3.49280      -10.12530
C          2.30410        2.40650       -9.26250
C          1.50980        2.19280       -8.17320
C         -0.70370        5.11590       -8.20180
S         -1.44290        4.44080       -6.78730
C         -1.12750        6.39910       -8.63770
C         -0.53060        7.27820       -9.49930
C         -1.23870        8.49240       -9.66210
C         -0.89470        9.59440      -10.46470
C          0.32080        9.59280      -11.26270
S          1.87440        9.29280      -10.53780
C          2.70230        9.45910      -12.04870
C          4.17180        9.24120      -12.14650
C          4.49840        7.74640      -12.19750
C          1.81370        9.72620      -13.04620
Cl         2.25630        9.94570      -14.68950
C          0.46490        9.80880      -12.60460
Cl        -0.83910       10.06310      -13.68680
C         -1.76410       10.67910      -10.45460
C         -2.95060       10.70800       -9.68330
C         -3.28380        9.61450       -8.86840
C         -4.45440        9.63710       -8.00570
S         -5.64260        8.37020       -8.04920
C         -6.58310        9.10390       -6.79600
C         -7.80900        8.44510       -6.26740
C         -7.44720        7.40890       -5.20050
C         -5.99160       10.25590       -6.37100
C         -4.78710       10.56450       -7.05820
Cl        -3.81980       11.92690       -6.66330
Cl        -6.62480       11.25570       -5.12810
C         -2.42780        8.52340       -8.89450
S         -2.62160        7.05840       -7.97830
C         -3.66810       11.92530       -9.86780
C         -3.03740       12.78360      -10.69480
S         -1.54600       12.17300      -11.32130
H          3.28260      -11.84480       12.98790
H          1.95450       -9.62940       13.31180
H         -0.05590       -4.97050       15.77550
H          1.59150       -5.62610       15.84960
H          1.63520       -3.14620       15.71350
H          2.36450       -3.85750       14.26930
H          0.72610       -3.20130       14.19970
H          4.71020      -10.72080        3.75950
H          4.28260      -12.44220        3.70600
H          6.74860      -12.14270        3.82040
H          6.15310      -12.95310        5.27240
H          6.57960      -11.24000        5.33090
H          1.56820       -8.37500        6.27660
H          1.52390       -6.53560        4.67760
H          5.32040       -7.31310        2.09510
H          4.90660       -7.81970        0.44430
H          5.51950       -5.55380       -0.39800
H          5.92350       -5.04700        1.24510
H          6.87940       -6.30090        0.44670
H         -3.33830        0.26210        8.56460
H         -4.98350        0.34190        7.90330
H         -5.42880       -1.96250        8.74530
H         -4.94090       -0.89580       10.06600
H         -3.78670       -2.05140        9.38940
H         -2.22080       -0.80110        2.70240
H         -2.62510        3.02750       -2.43770
H         -3.53170        4.20210       -0.50020
H         -3.27650        3.27670        1.76680
H         -2.19470        1.11270        2.11620
H         -0.28800        0.35970       -8.07810
H         -0.20660       -2.09490       -7.95000
H         -0.48560       -3.24240       -5.79180
H         -0.90920       -1.98210       -3.74780
H          0.91660        5.23220      -10.52250
H          2.67700        3.60840      -11.00630
H          3.12240        1.73540       -9.47520
H          1.69590        1.36600       -7.50600
H          0.41120        7.09350       -9.97670
H          4.53820        9.72850      -13.05150
H          4.66480        9.68980      -11.28210
H          4.14160        7.25160      -11.29700
H          4.02300        7.28670      -13.06040
H          5.57260        7.60140      -12.27310
H         -8.33950        7.95460       -7.08520
H         -8.45910        9.20710       -5.83380
H         -8.34700        6.93030       -4.82360
H         -6.93260        7.88730       -4.37100
H         -6.79460        6.64760       -5.62130
H         -4.61510       12.13080       -9.40390
H         -3.35650       13.76190      -10.99700
