
  xtb     03012220263D
 energy: -445.866618557725 gnorm: 0.000455022051 xtb: 6.4.1 (unknown)
225251  0     0  0            999 V2000
   -1.8536   -6.9347   11.6915 C   0  0  0  0  0  0  0  0  0  0  0  0
   -1.9332   -7.8697   10.7235 C   0  0  0  0  0  0  0  0  0  0  0  0
   -1.8235   -7.3192    9.4128 C   0  0  0  0  0  0  0  0  0  0  0  0
   -1.8551   -7.9850    8.1782 C   0  0  0  0  0  0  0  0  0  0  0  0
   -1.9356   -9.4346    8.0977 C   0  0  0  0  0  0  0  0  0  0  0  0
   -3.1610  -10.2238    7.1511 S   0  0  0  0  0  0  0  0  0  0  0  0
   -2.5709  -11.7986    7.5592 C   0  0  0  0  0  0  0  0  0  0  0  0
   -3.1998  -13.0221    6.9904 C   0  0  0  0  0  0  0  0  0  0  0  0
   -2.7748  -13.2268    5.5345 C   0  0  0  0  0  0  0  0  0  0  0  0
   -1.4812  -11.7013    8.3721 C   0  0  0  0  0  0  0  0  0  0  0  0
   -0.6112  -13.0510    8.9784 Cl  0  0  0  0  0  0  0  0  0  0  0  0
   -1.1217  -10.3626    8.6849 C   0  0  0  0  0  0  0  0  0  0  0  0
    0.2507   -9.9725    9.6399 Cl  0  0  0  0  0  0  0  0  0  0  0  0
   -1.8055   -7.1984    7.0345 C   0  0  0  0  0  0  0  0  0  0  0  0
   -1.6729   -5.7890    7.0697 C   0  0  0  0  0  0  0  0  0  0  0  0
   -1.5911   -5.1293    8.3071 C   0  0  0  0  0  0  0  0  0  0  0  0
   -1.4007   -3.6893    8.3802 C   0  0  0  0  0  0  0  0  0  0  0  0
   -2.5042   -2.6528    9.2295 S   0  0  0  0  0  0  0  0  0  0  0  0
   -1.5889   -1.2375    8.8392 C   0  0  0  0  0  0  0  0  0  0  0  0
   -1.9927    0.1029    9.3458 C   0  0  0  0  0  0  0  0  0  0  0  0
   -1.4488    0.3372   10.7571 C   0  0  0  0  0  0  0  0  0  0  0  0
   -0.4872   -1.5654    8.1052 C   0  0  0  0  0  0  0  0  0  0  0  0
   -0.3840   -2.9562    7.8362 C   0  0  0  0  0  0  0  0  0  0  0  0
    0.9272   -3.6679    6.9897 Cl  0  0  0  0  0  0  0  0  0  0  0  0
    0.6681   -0.4135    7.5630 Cl  0  0  0  0  0  0  0  0  0  0  0  0
   -1.6898   -5.9113    9.4500 C   0  0  0  0  0  0  0  0  0  0  0  0
   -1.6495   -5.3254   11.0893 S   0  0  0  0  0  0  0  0  0  0  0  0
   -1.6854   -5.2219    5.7697 C   0  0  0  0  0  0  0  0  0  0  0  0
   -1.8067   -6.1492    4.7762 C   0  0  0  0  0  0  0  0  0  0  0  0
   -1.8913   -7.7837    5.4002 S   0  0  0  0  0  0  0  0  0  0  0  0
   -1.9464   -5.9293    3.3708 C   0  0  0  0  0  0  0  0  0  0  0  0
   -1.8014   -4.7647    2.6740 C   0  0  0  0  0  0  0  0  0  0  0  0
   -2.1410   -4.8781    1.3027 C   0  0  0  0  0  0  0  0  0  0  0  0
   -2.1170   -3.8841    0.3048 C   0  0  0  0  0  0  0  0  0  0  0  0
   -1.7315   -2.5102    0.5806 C   0  0  0  0  0  0  0  0  0  0  0  0
   -0.6079   -1.6990   -0.4774 S   0  0  0  0  0  0  0  0  0  0  0  0
   -0.6478   -0.2447    0.4506 C   0  0  0  0  0  0  0  0  0  0  0  0
    0.1735    0.9343    0.0647 C   0  0  0  0  0  0  0  0  0  0  0  0
    1.5395    0.9025    0.7492 C   0  0  0  0  0  0  0  0  0  0  0  0
   -1.4703   -0.3952    1.5268 C   0  0  0  0  0  0  0  0  0  0  0  0
   -1.7266    0.8323    2.7004 Cl  0  0  0  0  0  0  0  0  0  0  0  0
   -2.1010   -1.6665    1.5951 C   0  0  0  0  0  0  0  0  0  0  0  0
   -3.2982   -2.0128    2.7768 Cl  0  0  0  0  0  0  0  0  0  0  0  0
   -2.4275   -4.2928   -0.9887 C   0  0  0  0  0  0  0  0  0  0  0  0
   -2.7463   -5.6281   -1.3352 C   0  0  0  0  0  0  0  0  0  0  0  0
   -2.8022   -6.6114   -0.3329 C   0  0  0  0  0  0  0  0  0  0  0  0
   -3.1088   -7.9964   -0.6484 C   0  0  0  0  0  0  0  0  0  0  0  0
   -2.2068   -8.8519   -1.8672 S   0  0  0  0  0  0  0  0  0  0  0  0
   -3.0860  -10.3201   -1.6048 C   0  0  0  0  0  0  0  0  0  0  0  0
   -2.8169  -11.5319   -2.4264 C   0  0  0  0  0  0  0  0  0  0  0  0
   -3.4043  -11.3835   -3.8316 C   0  0  0  0  0  0  0  0  0  0  0  0
   -4.0249  -10.1383   -0.6350 C   0  0  0  0  0  0  0  0  0  0  0  0
   -4.0382   -8.8263   -0.0868 C   0  0  0  0  0  0  0  0  0  0  0  0
   -5.1815   -8.3407    1.0935 Cl  0  0  0  0  0  0  0  0  0  0  0  0
   -5.1013  -11.3632   -0.1012 Cl  0  0  0  0  0  0  0  0  0  0  0  0
   -2.5110   -6.2056    0.9634 C   0  0  0  0  0  0  0  0  0  0  0  0
   -2.4572   -7.2524    2.3481 S   0  0  0  0  0  0  0  0  0  0  0  0
   -2.9990   -5.7813   -2.7223 C   0  0  0  0  0  0  0  0  0  0  0  0
   -2.8858   -4.6204   -3.4274 C   0  0  0  0  0  0  0  0  0  0  0  0
   -2.4902   -3.2610   -2.3844 S   0  0  0  0  0  0  0  0  0  0  0  0
   -2.9554   -4.3632   -4.8301 C   0  0  0  0  0  0  0  0  0  0  0  0
   -2.5112   -5.1286   -5.9121 C   0  0  0  0  0  0  0  0  0  0  0  0
   -2.5079   -4.3887   -7.1420 C   0  0  0  0  0  0  0  0  0  0  0  0
   -2.0639   -5.0045   -8.3324 C   0  0  0  0  0  0  0  0  0  0  0  0
   -1.6267   -6.2948   -8.2913 C   0  0  0  0  0  0  0  0  0  0  0  0
   -1.5993   -7.0147   -7.0770 C   0  0  0  0  0  0  0  0  0  0  0  0
   -2.0260   -6.4542   -5.9088 C   0  0  0  0  0  0  0  0  0  0  0  0
   -2.9745   -3.0872   -6.9877 C   0  0  0  0  0  0  0  0  0  0  0  0
   -3.4326   -2.7876   -5.3472 S   0  0  0  0  0  0  0  0  0  0  0  0
   -2.8734   -1.9285   -7.8250 C   0  0  0  0  0  0  0  0  0  0  0  0
   -1.7539   -1.4719   -8.4565 C   0  0  0  0  0  0  0  0  0  0  0  0
   -1.7759   -0.0692   -8.6821 C   0  0  0  0  0  0  0  0  0  0  0  0
   -0.6594    0.7547   -8.9071 C   0  0  0  0  0  0  0  0  0  0  0  0
    0.6324    0.1661   -9.2453 C   0  0  0  0  0  0  0  0  0  0  0  0
    0.9185   -0.5488  -10.8014 S   0  0  0  0  0  0  0  0  0  0  0  0
    2.5400   -0.9893  -10.3836 C   0  0  0  0  0  0  0  0  0  0  0  0
    3.4435   -1.6415  -11.3711 C   0  0  0  0  0  0  0  0  0  0  0  0
    4.1801   -0.5958  -12.2115 C   0  0  0  0  0  0  0  0  0  0  0  0
    2.8245   -0.5980   -9.1098 C   0  0  0  0  0  0  0  0  0  0  0  0
    4.3351   -0.8654   -8.3417 Cl  0  0  0  0  0  0  0  0  0  0  0  0
    1.7405    0.0505   -8.4569 C   0  0  0  0  0  0  0  0  0  0  0  0
    1.8079    0.5613   -6.8211 Cl  0  0  0  0  0  0  0  0  0  0  0  0
   -0.7953    2.0972   -8.5883 C   0  0  0  0  0  0  0  0  0  0  0  0
   -2.0302    2.6689   -8.1896 C   0  0  0  0  0  0  0  0  0  0  0  0
   -3.1802    1.8722   -8.1155 C   0  0  0  0  0  0  0  0  0  0  0  0
   -4.4614    2.3992   -7.6481 C   0  0  0  0  0  0  0  0  0  0  0  0
   -5.8128    2.5910   -8.7191 S   0  0  0  0  0  0  0  0  0  0  0  0
   -6.8401    3.1544   -7.4433 C   0  0  0  0  0  0  0  0  0  0  0  0
   -8.2415    3.5786   -7.7128 C   0  0  0  0  0  0  0  0  0  0  0  0
   -8.2912    5.0278   -8.2026 C   0  0  0  0  0  0  0  0  0  0  0  0
   -6.1574    3.1896   -6.2650 C   0  0  0  0  0  0  0  0  0  0  0  0
   -4.8091    2.7557   -6.3792 C   0  0  0  0  0  0  0  0  0  0  0  0
   -3.7481    2.6480   -5.0369 Cl  0  0  0  0  0  0  0  0  0  0  0  0
   -6.8357    3.6885   -4.7690 Cl  0  0  0  0  0  0  0  0  0  0  0  0
   -3.0055    0.5097   -8.2902 C   0  0  0  0  0  0  0  0  0  0  0  0
   -4.1170   -0.6930   -7.6999 S   0  0  0  0  0  0  0  0  0  0  0  0
   -1.8551    3.9368   -7.5802 C   0  0  0  0  0  0  0  0  0  0  0  0
   -0.5457    4.2882   -7.4345 C   0  0  0  0  0  0  0  0  0  0  0  0
    0.5257    3.2077   -8.3203 S   0  0  0  0  0  0  0  0  0  0  0  0
   -0.0501    4.9719   -6.2658 C   0  0  0  0  0  0  0  0  0  0  0  0
   -0.5838    4.6173   -5.0622 C   0  0  0  0  0  0  0  0  0  0  0  0
    0.1996    5.0012   -3.9546 C   0  0  0  0  0  0  0  0  0  0  0  0
    0.0456    4.5477   -2.6367 C   0  0  0  0  0  0  0  0  0  0  0  0
   -0.9931    3.5667   -2.3404 C   0  0  0  0  0  0  0  0  0  0  0  0
   -2.3310    3.8788   -1.2788 S   0  0  0  0  0  0  0  0  0  0  0  0
   -3.0717    2.3549   -1.6352 C   0  0  0  0  0  0  0  0  0  0  0  0
   -4.3995    1.9758   -1.0760 C   0  0  0  0  0  0  0  0  0  0  0  0
   -4.2826    0.9287    0.0309 C   0  0  0  0  0  0  0  0  0  0  0  0
   -2.2914    1.6372   -2.4927 C   0  0  0  0  0  0  0  0  0  0  0  0
   -2.6840    0.0657   -3.0657 Cl  0  0  0  0  0  0  0  0  0  0  0  0
   -1.1222    2.3285   -2.9065 C   0  0  0  0  0  0  0  0  0  0  0  0
    0.0109    1.6530   -4.0092 Cl  0  0  0  0  0  0  0  0  0  0  0  0
    0.9826    4.9871   -1.7204 C   0  0  0  0  0  0  0  0  0  0  0  0
    2.0466    5.8607   -2.0641 C   0  0  0  0  0  0  0  0  0  0  0  0
    2.2447    6.2351   -3.4072 C   0  0  0  0  0  0  0  0  0  0  0  0
    3.4129    6.9957   -3.8180 C   0  0  0  0  0  0  0  0  0  0  0  0
    3.2583    8.4262   -4.7929 S   0  0  0  0  0  0  0  0  0  0  0  0
    4.9708    8.6619   -4.8571 C   0  0  0  0  0  0  0  0  0  0  0  0
    5.5632    9.8378   -5.5514 C   0  0  0  0  0  0  0  0  0  0  0  0
    5.5943   11.0593   -4.6297 C   0  0  0  0  0  0  0  0  0  0  0  0
    5.6106    7.6832   -4.1564 C   0  0  0  0  0  0  0  0  0  0  0  0
    4.7322    6.7329   -3.5703 C   0  0  0  0  0  0  0  0  0  0  0  0
    5.3009    5.3545   -2.7184 Cl  0  0  0  0  0  0  0  0  0  0  0  0
    7.3161    7.5805   -3.9961 Cl  0  0  0  0  0  0  0  0  0  0  0  0
    1.3153    5.7796   -4.3358 C   0  0  0  0  0  0  0  0  0  0  0  0
    1.4059    5.9224   -6.0787 S   0  0  0  0  0  0  0  0  0  0  0  0
    2.8546    6.1615   -0.9343 C   0  0  0  0  0  0  0  0  0  0  0  0
    2.4950    5.4763    0.1851 C   0  0  0  0  0  0  0  0  0  0  0  0
    1.0710    4.4836   -0.0624 S   0  0  0  0  0  0  0  0  0  0  0  0
    3.1490    5.3905    1.4548 C   0  0  0  0  0  0  0  0  0  0  0  0
    3.1375    4.2979    2.2655 C   0  0  0  0  0  0  0  0  0  0  0  0
    3.9009    4.4612    3.4460 C   0  0  0  0  0  0  0  0  0  0  0  0
    4.1523    3.4998    4.4368 C   0  0  0  0  0  0  0  0  0  0  0  0
    3.8111    2.1063    4.1968 C   0  0  0  0  0  0  0  0  0  0  0  0
    2.8448    1.1399    5.2670 S   0  0  0  0  0  0  0  0  0  0  0  0
    3.0101   -0.2661    4.2702 C   0  0  0  0  0  0  0  0  0  0  0  0
    2.3362   -1.5497    4.6004 C   0  0  0  0  0  0  0  0  0  0  0  0
    0.9224   -1.6042    4.0167 C   0  0  0  0  0  0  0  0  0  0  0  0
    3.7748    0.0142    3.1771 C   0  0  0  0  0  0  0  0  0  0  0  0
    4.1887   -1.1444    1.9805 Cl  0  0  0  0  0  0  0  0  0  0  0  0
    4.2231    1.3588    3.1266 C   0  0  0  0  0  0  0  0  0  0  0  0
    5.2283    1.9526    1.8682 Cl  0  0  0  0  0  0  0  0  0  0  0  0
    4.8257    3.9341    5.5699 C   0  0  0  0  0  0  0  0  0  0  0  0
    5.3245    5.2525    5.7030 C   0  0  0  0  0  0  0  0  0  0  0  0
    5.1850    6.1729    4.6503 C   0  0  0  0  0  0  0  0  0  0  0  0
    5.8064    7.4853    4.7104 C   0  0  0  0  0  0  0  0  0  0  0  0
    4.9007    8.9396    4.4184 S   0  0  0  0  0  0  0  0  0  0  0  0
    6.2895    9.9441    4.6536 C   0  0  0  0  0  0  0  0  0  0  0  0
    6.1898   11.4283    4.5921 C   0  0  0  0  0  0  0  0  0  0  0  0
    5.7812   12.0064    5.9491 C   0  0  0  0  0  0  0  0  0  0  0  0
    7.3824    9.1828    4.9439 C   0  0  0  0  0  0  0  0  0  0  0  0
    7.1141    7.7882    4.9728 C   0  0  0  0  0  0  0  0  0  0  0  0
    8.3415    6.6162    5.2313 Cl  0  0  0  0  0  0  0  0  0  0  0  0
    8.9458    9.8264    5.2385 Cl  0  0  0  0  0  0  0  0  0  0  0  0
    4.4450    5.7622    3.5488 C   0  0  0  0  0  0  0  0  0  0  0  0
    4.0984    6.7034    2.1208 S   0  0  0  0  0  0  0  0  0  0  0  0
    5.9476    5.4470    6.9708 C   0  0  0  0  0  0  0  0  0  0  0  0
    5.9473    4.3334    7.7311 C   0  0  0  0  0  0  0  0  0  0  0  0
    5.1946    2.9724    6.9726 S   0  0  0  0  0  0  0  0  0  0  0  0
   -1.9062   -7.0796   12.7528 H   0  0  0  0  0  0  0  0  0  0  0  0
   -2.0773   -8.9165   10.9163 H   0  0  0  0  0  0  0  0  0  0  0  0
   -2.8956  -13.8823    7.5890 H   0  0  0  0  0  0  0  0  0  0  0  0
   -4.2864  -12.9282    7.0393 H   0  0  0  0  0  0  0  0  0  0  0  0
   -1.6954  -13.3383    5.4686 H   0  0  0  0  0  0  0  0  0  0  0  0
   -3.0731  -12.3724    4.9316 H   0  0  0  0  0  0  0  0  0  0  0  0
   -3.2430  -14.1206    5.1312 H   0  0  0  0  0  0  0  0  0  0  0  0
   -3.0817    0.1717    9.3604 H   0  0  0  0  0  0  0  0  0  0  0  0
   -1.6021    0.8667    8.6707 H   0  0  0  0  0  0  0  0  0  0  0  0
   -1.7509    1.3174   11.1155 H   0  0  0  0  0  0  0  0  0  0  0  0
   -1.8317   -0.4186   11.4386 H   0  0  0  0  0  0  0  0  0  0  0  0
   -0.3629    0.2859   10.7556 H   0  0  0  0  0  0  0  0  0  0  0  0
   -1.6461   -4.1638    5.5879 H   0  0  0  0  0  0  0  0  0  0  0  0
   -1.4494   -3.8570    3.1246 H   0  0  0  0  0  0  0  0  0  0  0  0
   -0.3545    1.8480    0.3468 H   0  0  0  0  0  0  0  0  0  0  0  0
    0.3135    0.9320   -1.0166 H   0  0  0  0  0  0  0  0  0  0  0  0
    2.0574   -0.0231    0.5122 H   0  0  0  0  0  0  0  0  0  0  0  0
    2.1461    1.7343    0.4021 H   0  0  0  0  0  0  0  0  0  0  0  0
    1.4235    0.9720    1.8282 H   0  0  0  0  0  0  0  0  0  0  0  0
   -3.2626  -12.3947   -1.9289 H   0  0  0  0  0  0  0  0  0  0  0  0
   -1.7389  -11.6895   -2.5005 H   0  0  0  0  0  0  0  0  0  0  0  0
   -2.9613  -10.5283   -4.3369 H   0  0  0  0  0  0  0  0  0  0  0  0
   -4.4800  -11.2363   -3.7773 H   0  0  0  0  0  0  0  0  0  0  0  0
   -3.2043  -12.2770   -4.4166 H   0  0  0  0  0  0  0  0  0  0  0  0
   -3.2893   -6.7140   -3.1680 H   0  0  0  0  0  0  0  0  0  0  0  0
   -2.0845   -4.4424   -9.2537 H   0  0  0  0  0  0  0  0  0  0  0  0
   -1.2872   -6.7809   -9.1936 H   0  0  0  0  0  0  0  0  0  0  0  0
   -1.2306   -8.0295   -7.0830 H   0  0  0  0  0  0  0  0  0  0  0  0
   -1.9894   -7.0064   -4.9833 H   0  0  0  0  0  0  0  0  0  0  0  0
   -0.8785   -2.0784   -8.6057 H   0  0  0  0  0  0  0  0  0  0  0  0
    4.1695   -2.2522  -10.8308 H   0  0  0  0  0  0  0  0  0  0  0  0
    2.8580   -2.2888  -12.0262 H   0  0  0  0  0  0  0  0  0  0  0  0
    4.8403   -1.0856  -12.9219 H   0  0  0  0  0  0  0  0  0  0  0  0
    4.7745    0.0504  -11.5707 H   0  0  0  0  0  0  0  0  0  0  0  0
    3.4688    0.0173  -12.7598 H   0  0  0  0  0  0  0  0  0  0  0  0
   -8.8189    3.4836   -6.7913 H   0  0  0  0  0  0  0  0  0  0  0  0
   -8.6788    2.9246   -8.4691 H   0  0  0  0  0  0  0  0  0  0  0  0
   -7.7185    5.1354   -9.1207 H   0  0  0  0  0  0  0  0  0  0  0  0
   -9.3194    5.3212   -8.3959 H   0  0  0  0  0  0  0  0  0  0  0  0
   -7.8738    5.6941   -7.4518 H   0  0  0  0  0  0  0  0  0  0  0  0
   -2.6620    4.4936   -7.1400 H   0  0  0  0  0  0  0  0  0  0  0  0
   -1.4706    4.0193   -4.9747 H   0  0  0  0  0  0  0  0  0  0  0  0
   -4.8903    2.8692   -0.6871 H   0  0  0  0  0  0  0  0  0  0  0  0
   -5.0090    1.5707   -1.8881 H   0  0  0  0  0  0  0  0  0  0  0  0
   -3.7064    1.3229    0.8628 H   0  0  0  0  0  0  0  0  0  0  0  0
   -5.2715    0.6573    0.3909 H   0  0  0  0  0  0  0  0  0  0  0  0
   -3.7922    0.0339   -0.3438 H   0  0  0  0  0  0  0  0  0  0  0  0
    4.9736   10.0679   -6.4404 H   0  0  0  0  0  0  0  0  0  0  0  0
    6.5797    9.5864   -5.8595 H   0  0  0  0  0  0  0  0  0  0  0  0
    6.0305   11.9080   -5.1494 H   0  0  0  0  0  0  0  0  0  0  0  0
    6.1899   10.8483   -3.7452 H   0  0  0  0  0  0  0  0  0  0  0  0
    4.5863   11.3208   -4.3166 H   0  0  0  0  0  0  0  0  0  0  0  0
    3.6908    6.8362   -0.9564 H   0  0  0  0  0  0  0  0  0  0  0  0
    2.5990    3.3987    2.0289 H   0  0  0  0  0  0  0  0  0  0  0  0
    2.9275   -2.3711    4.1906 H   0  0  0  0  0  0  0  0  0  0  0  0
    2.2858   -1.6629    5.6827 H   0  0  0  0  0  0  0  0  0  0  0  0
    0.4564   -2.5503    4.2794 H   0  0  0  0  0  0  0  0  0  0  0  0
    0.9538   -1.5191    2.9330 H   0  0  0  0  0  0  0  0  0  0  0  0
    0.3163   -0.7939    4.4148 H   0  0  0  0  0  0  0  0  0  0  0  0
    5.4518   11.7101    3.8394 H   0  0  0  0  0  0  0  0  0  0  0  0
    7.1610   11.8328    4.3008 H   0  0  0  0  0  0  0  0  0  0  0  0
    4.8132   11.6130    6.2502 H   0  0  0  0  0  0  0  0  0  0  0  0
    5.7154   13.0893    5.8890 H   0  0  0  0  0  0  0  0  0  0  0  0
    6.5150   11.7434    6.7067 H   0  0  0  0  0  0  0  0  0  0  0  0
    6.3584    6.3867    7.2907 H   0  0  0  0  0  0  0  0  0  0  0  0
    6.3475    4.2112    8.7185 H   0  0  0  0  0  0  0  0  0  0  0  0
  1  2  2  0  0  0  0
  2  3  1  0  0  0  0
  3  4  2  0  0  0  0
  4  5  1  0  0  0  0
  5  6  1  0  0  0  0
  6  7  1  0  0  0  0
  7  8  1  0  0  0  0
  8  9  1  0  0  0  0
  7 10  2  0  0  0  0
 10 11  1  0  0  0  0
 10 12  1  0  0  0  0
 12 13  1  0  0  0  0
  4 14  1  0  0  0  0
 14 15  2  0  0  0  0
 15 16  1  0  0  0  0
 16 17  1  0  0  0  0
 17 18  1  0  0  0  0
 18 19  1  0  0  0  0
 19 20  1  0  0  0  0
 20 21  1  0  0  0  0
 19 22  2  0  0  0  0
 22 23  1  0  0  0  0
 23 24  1  0  0  0  0
 22 25  1  0  0  0  0
 16 26  2  0  0  0  0
 26 27  1  0  0  0  0
 15 28  1  0  0  0  0
 28 29  2  0  0  0  0
 29 30  1  0  0  0  0
 29 31  1  0  0  0  0
 31 32  2  0  0  0  0
 32 33  1  0  0  0  0
 33 34  2  0  0  0  0
 34 35  1  0  0  0  0
 35 36  1  0  0  0  0
 36 37  1  0  0  0  0
 37 38  1  0  0  0  0
 38 39  1  0  0  0  0
 37 40  2  0  0  0  0
 40 41  1  0  0  0  0
 40 42  1  0  0  0  0
 42 43  1  0  0  0  0
 34 44  1  0  0  0  0
 44 45  2  0  0  0  0
 45 46  1  0  0  0  0
 46 47  1  0  0  0  0
 47 48  1  0  0  0  0
 48 49  1  0  0  0  0
 49 50  1  0  0  0  0
 50 51  1  0  0  0  0
 49 52  2  0  0  0  0
 52 53  1  0  0  0  0
 53 54  1  0  0  0  0
 52 55  1  0  0  0  0
 46 56  2  0  0  0  0
 56 57  1  0  0  0  0
 45 58  1  0  0  0  0
 58 59  2  0  0  0  0
 59 60  1  0  0  0  0
 59 61  1  0  0  0  0
 61 62  2  0  0  0  0
 62 63  1  0  0  0  0
 63 64  1  0  0  0  0
 64 65  2  0  0  0  0
 65 66  1  0  0  0  0
 66 67  2  0  0  0  0
 63 68  2  0  0  0  0
 68 69  1  0  0  0  0
 68 70  1  0  0  0  0
 70 71  2  0  0  0  0
 71 72  1  0  0  0  0
 72 73  2  0  0  0  0
 73 74  1  0  0  0  0
 74 75  1  0  0  0  0
 75 76  1  0  0  0  0
 76 77  1  0  0  0  0
 77 78  1  0  0  0  0
 76 79  2  0  0  0  0
 79 80  1  0  0  0  0
 79 81  1  0  0  0  0
 81 82  1  0  0  0  0
 73 83  1  0  0  0  0
 83 84  2  0  0  0  0
 84 85  1  0  0  0  0
 85 86  1  0  0  0  0
 86 87  1  0  0  0  0
 87 88  1  0  0  0  0
 88 89  1  0  0  0  0
 89 90  1  0  0  0  0
 88 91  2  0  0  0  0
 91 92  1  0  0  0  0
 92 93  1  0  0  0  0
 91 94  1  0  0  0  0
 85 95  2  0  0  0  0
 95 96  1  0  0  0  0
 84 97  1  0  0  0  0
 97 98  2  0  0  0  0
 98 99  1  0  0  0  0
 98100  1  0  0  0  0
100101  2  0  0  0  0
101102  1  0  0  0  0
102103  2  0  0  0  0
103104  1  0  0  0  0
104105  1  0  0  0  0
105106  1  0  0  0  0
106107  1  0  0  0  0
107108  1  0  0  0  0
106109  2  0  0  0  0
109110  1  0  0  0  0
109111  1  0  0  0  0
111112  1  0  0  0  0
103113  1  0  0  0  0
113114  2  0  0  0  0
114115  1  0  0  0  0
115116  1  0  0  0  0
116117  1  0  0  0  0
117118  1  0  0  0  0
118119  1  0  0  0  0
119120  1  0  0  0  0
118121  2  0  0  0  0
121122  1  0  0  0  0
122123  1  0  0  0  0
121124  1  0  0  0  0
115125  2  0  0  0  0
125126  1  0  0  0  0
114127  1  0  0  0  0
127128  2  0  0  0  0
128129  1  0  0  0  0
128130  1  0  0  0  0
130131  2  0  0  0  0
131132  1  0  0  0  0
132133  2  0  0  0  0
133134  1  0  0  0  0
134135  1  0  0  0  0
135136  1  0  0  0  0
136137  1  0  0  0  0
137138  1  0  0  0  0
136139  2  0  0  0  0
139140  1  0  0  0  0
139141  1  0  0  0  0
141142  1  0  0  0  0
133143  1  0  0  0  0
143144  2  0  0  0  0
144145  1  0  0  0  0
145146  1  0  0  0  0
146147  1  0  0  0  0
147148  1  0  0  0  0
148149  1  0  0  0  0
149150  1  0  0  0  0
148151  2  0  0  0  0
151152  1  0  0  0  0
152153  1  0  0  0  0
151154  1  0  0  0  0
145155  2  0  0  0  0
155156  1  0  0  0  0
144157  1  0  0  0  0
157158  2  0  0  0  0
158159  1  0  0  0  0
 27  1  1  0  0  0  0
 57 31  1  0  0  0  0
 69 61  1  0  0  0  0
 96 70  1  0  0  0  0
126100  1  0  0  0  0
156130  1  0  0  0  0
 26  3  1  0  0  0  0
 56 33  1  0  0  0  0
 67 62  1  0  0  0  0
 95 72  1  0  0  0  0
125102  1  0  0  0  0
155132  1  0  0  0  0
 12  5  2  0  0  0  0
 30 14  1  0  0  0  0
 42 35  2  0  0  0  0
 60 44  1  0  0  0  0
 81 74  2  0  0  0  0
 99 83  1  0  0  0  0
111104  2  0  0  0  0
129113  1  0  0  0  0
141134  2  0  0  0  0
159143  1  0  0  0  0
 23 17  2  0  0  0  0
 53 47  2  0  0  0  0
 92 86  2  0  0  0  0
122116  2  0  0  0  0
152146  2  0  0  0  0
  1160  1  0  0  0  0
  2161  1  0  0  0  0
  8162  1  0  0  0  0
  8163  1  0  0  0  0
  9164  1  0  0  0  0
  9165  1  0  0  0  0
  9166  1  0  0  0  0
 20167  1  0  0  0  0
 20168  1  0  0  0  0
 21169  1  0  0  0  0
 21170  1  0  0  0  0
 21171  1  0  0  0  0
 28172  1  0  0  0  0
 32173  1  0  0  0  0
 38174  1  0  0  0  0
 38175  1  0  0  0  0
 39176  1  0  0  0  0
 39177  1  0  0  0  0
 39178  1  0  0  0  0
 50179  1  0  0  0  0
 50180  1  0  0  0  0
 51181  1  0  0  0  0
 51182  1  0  0  0  0
 51183  1  0  0  0  0
 58184  1  0  0  0  0
 64185  1  0  0  0  0
 65186  1  0  0  0  0
 66187  1  0  0  0  0
 67188  1  0  0  0  0
 71189  1  0  0  0  0
 77190  1  0  0  0  0
 77191  1  0  0  0  0
 78192  1  0  0  0  0
 78193  1  0  0  0  0
 78194  1  0  0  0  0
 89195  1  0  0  0  0
 89196  1  0  0  0  0
 90197  1  0  0  0  0
 90198  1  0  0  0  0
 90199  1  0  0  0  0
 97200  1  0  0  0  0
101201  1  0  0  0  0
107202  1  0  0  0  0
107203  1  0  0  0  0
108204  1  0  0  0  0
108205  1  0  0  0  0
108206  1  0  0  0  0
119207  1  0  0  0  0
119208  1  0  0  0  0
120209  1  0  0  0  0
120210  1  0  0  0  0
120211  1  0  0  0  0
127212  1  0  0  0  0
131213  1  0  0  0  0
137214  1  0  0  0  0
137215  1  0  0  0  0
138216  1  0  0  0  0
138217  1  0  0  0  0
138218  1  0  0  0  0
149219  1  0  0  0  0
149220  1  0  0  0  0
150221  1  0  0  0  0
150222  1  0  0  0  0
150223  1  0  0  0  0
157224  1  0  0  0  0
158225  1  0  0  0  0
M  END
