225

C         -1.85360       -6.93470       11.69150
C         -1.93320       -7.86970       10.72350
C         -1.82350       -7.31920        9.41280
C         -1.85510       -7.98500        8.17820
C         -1.93560       -9.43460        8.09770
S         -3.16100      -10.22380        7.15110
C         -2.57090      -11.79860        7.55920
C         -3.19980      -13.02210        6.99040
C         -2.77480      -13.22680        5.53450
C         -1.48120      -11.70130        8.37210
Cl        -0.61120      -13.05100        8.97840
C         -1.12170      -10.36260        8.68490
Cl         0.25070       -9.97250        9.63990
C         -1.80550       -7.19840        7.03450
C         -1.67290       -5.78900        7.06970
C         -1.59110       -5.12930        8.30710
C         -1.40070       -3.68930        8.38020
S         -2.50420       -2.65280        9.22950
C         -1.58890       -1.23750        8.83920
C         -1.99270        0.10290        9.34580
C         -1.44880        0.33720       10.75710
C         -0.48720       -1.56540        8.10520
C         -0.38400       -2.95620        7.83620
Cl         0.92720       -3.66790        6.98970
Cl         0.66810       -0.41350        7.56300
C         -1.68980       -5.91130        9.45000
S         -1.64950       -5.32540       11.08930
C         -1.68540       -5.22190        5.76970
C         -1.80670       -6.14920        4.77620
S         -1.89130       -7.78370        5.40020
C         -1.94640       -5.92930        3.37080
C         -1.80140       -4.76470        2.67400
C         -2.14100       -4.87810        1.30270
C         -2.11700       -3.88410        0.30480
C         -1.73150       -2.51020        0.58060
S         -0.60790       -1.69900       -0.47740
C         -0.64780       -0.24470        0.45060
C          0.17350        0.93430        0.06470
C          1.53950        0.90250        0.74920
C         -1.47030       -0.39520        1.52680
Cl        -1.72660        0.83230        2.70040
C         -2.10100       -1.66650        1.59510
Cl        -3.29820       -2.01280        2.77680
C         -2.42750       -4.29280       -0.98870
C         -2.74630       -5.62810       -1.33520
C         -2.80220       -6.61140       -0.33290
C         -3.10880       -7.99640       -0.64840
S         -2.20680       -8.85190       -1.86720
C         -3.08600      -10.32010       -1.60480
C         -2.81690      -11.53190       -2.42640
C         -3.40430      -11.38350       -3.83160
C         -4.02490      -10.13830       -0.63500
C         -4.03820       -8.82630       -0.08680
Cl        -5.18150       -8.34070        1.09350
Cl        -5.10130      -11.36320       -0.10120
C         -2.51100       -6.20560        0.96340
S         -2.45720       -7.25240        2.34810
C         -2.99900       -5.78130       -2.72230
C         -2.88580       -4.62040       -3.42740
S         -2.49020       -3.26100       -2.38440
C         -2.95540       -4.36320       -4.83010
C         -2.51120       -5.12860       -5.91210
C         -2.50790       -4.38870       -7.14200
C         -2.06390       -5.00450       -8.33240
C         -1.62670       -6.29480       -8.29130
C         -1.59930       -7.01470       -7.07700
C         -2.02600       -6.45420       -5.90880
C         -2.97450       -3.08720       -6.98770
S         -3.43260       -2.78760       -5.34720
C         -2.87340       -1.92850       -7.82500
C         -1.75390       -1.47190       -8.45650
C         -1.77590       -0.06920       -8.68210
C         -0.65940        0.75470       -8.90710
C          0.63240        0.16610       -9.24530
S          0.91850       -0.54880      -10.80140
C          2.54000       -0.98930      -10.38360
C          3.44350       -1.64150      -11.37110
C          4.18010       -0.59580      -12.21150
C          2.82450       -0.59800       -9.10980
Cl         4.33510       -0.86540       -8.34170
C          1.74050        0.05050       -8.45690
Cl         1.80790        0.56130       -6.82110
C         -0.79530        2.09720       -8.58830
C         -2.03020        2.66890       -8.18960
C         -3.18020        1.87220       -8.11550
C         -4.46140        2.39920       -7.64810
S         -5.81280        2.59100       -8.71910
C         -6.84010        3.15440       -7.44330
C         -8.24150        3.57860       -7.71280
C         -8.29120        5.02780       -8.20260
C         -6.15740        3.18960       -6.26500
C         -4.80910        2.75570       -6.37920
Cl        -3.74810        2.64800       -5.03690
Cl        -6.83570        3.68850       -4.76900
C         -3.00550        0.50970       -8.29020
S         -4.11700       -0.69300       -7.69990
C         -1.85510        3.93680       -7.58020
C         -0.54570        4.28820       -7.43450
S          0.52570        3.20770       -8.32030
C         -0.05010        4.97190       -6.26580
C         -0.58380        4.61730       -5.06220
C          0.19960        5.00120       -3.95460
C          0.04560        4.54770       -2.63670
C         -0.99310        3.56670       -2.34040
S         -2.33100        3.87880       -1.27880
C         -3.07170        2.35490       -1.63520
C         -4.39950        1.97580       -1.07600
C         -4.28260        0.92870        0.03090
C         -2.29140        1.63720       -2.49270
Cl        -2.68400        0.06570       -3.06570
C         -1.12220        2.32850       -2.90650
Cl         0.01090        1.65300       -4.00920
C          0.98260        4.98710       -1.72040
C          2.04660        5.86070       -2.06410
C          2.24470        6.23510       -3.40720
C          3.41290        6.99570       -3.81800
S          3.25830        8.42620       -4.79290
C          4.97080        8.66190       -4.85710
C          5.56320        9.83780       -5.55140
C          5.59430       11.05930       -4.62970
C          5.61060        7.68320       -4.15640
C          4.73220        6.73290       -3.57030
Cl         5.30090        5.35450       -2.71840
Cl         7.31610        7.58050       -3.99610
C          1.31530        5.77960       -4.33580
S          1.40590        5.92240       -6.07870
C          2.85460        6.16150       -0.93430
C          2.49500        5.47630        0.18510
S          1.07100        4.48360       -0.06240
C          3.14900        5.39050        1.45480
C          3.13750        4.29790        2.26550
C          3.90090        4.46120        3.44600
C          4.15230        3.49980        4.43680
C          3.81110        2.10630        4.19680
S          2.84480        1.13990        5.26700
C          3.01010       -0.26610        4.27020
C          2.33620       -1.54970        4.60040
C          0.92240       -1.60420        4.01670
C          3.77480        0.01420        3.17710
Cl         4.18870       -1.14440        1.98050
C          4.22310        1.35880        3.12660
Cl         5.22830        1.95260        1.86820
C          4.82570        3.93410        5.56990
C          5.32450        5.25250        5.70300
C          5.18500        6.17290        4.65030
C          5.80640        7.48530        4.71040
S          4.90070        8.93960        4.41840
C          6.28950        9.94410        4.65360
C          6.18980       11.42830        4.59210
C          5.78120       12.00640        5.94910
C          7.38240        9.18280        4.94390
C          7.11410        7.78820        4.97280
Cl         8.34150        6.61620        5.23130
Cl         8.94580        9.82640        5.23850
C          4.44500        5.76220        3.54880
S          4.09840        6.70340        2.12080
C          5.94760        5.44700        6.97080
C          5.94730        4.33340        7.73110
S          5.19460        2.97240        6.97260
H         -1.90620       -7.07960       12.75280
H         -2.07730       -8.91650       10.91630
H         -2.89560      -13.88230        7.58900
H         -4.28640      -12.92820        7.03930
H         -1.69540      -13.33830        5.46860
H         -3.07310      -12.37240        4.93160
H         -3.24300      -14.12060        5.13120
H         -3.08170        0.17170        9.36040
H         -1.60210        0.86670        8.67070
H         -1.75090        1.31740       11.11550
H         -1.83170       -0.41860       11.43860
H         -0.36290        0.28590       10.75560
H         -1.64610       -4.16380        5.58790
H         -1.44940       -3.85700        3.12460
H         -0.35450        1.84800        0.34680
H          0.31350        0.93200       -1.01660
H          2.05740       -0.02310        0.51220
H          2.14610        1.73430        0.40210
H          1.42350        0.97200        1.82820
H         -3.26260      -12.39470       -1.92890
H         -1.73890      -11.68950       -2.50050
H         -2.96130      -10.52830       -4.33690
H         -4.48000      -11.23630       -3.77730
H         -3.20430      -12.27700       -4.41660
H         -3.28930       -6.71400       -3.16800
H         -2.08450       -4.44240       -9.25370
H         -1.28720       -6.78090       -9.19360
H         -1.23060       -8.02950       -7.08300
H         -1.98940       -7.00640       -4.98330
H         -0.87850       -2.07840       -8.60570
H          4.16950       -2.25220      -10.83080
H          2.85800       -2.28880      -12.02620
H          4.84030       -1.08560      -12.92190
H          4.77450        0.05040      -11.57070
H          3.46880        0.01730      -12.75980
H         -8.81890        3.48360       -6.79130
H         -8.67880        2.92460       -8.46910
H         -7.71850        5.13540       -9.12070
H         -9.31940        5.32120       -8.39590
H         -7.87380        5.69410       -7.45180
H         -2.66200        4.49360       -7.14000
H         -1.47060        4.01930       -4.97470
H         -4.89030        2.86920       -0.68710
H         -5.00900        1.57070       -1.88810
H         -3.70640        1.32290        0.86280
H         -5.27150        0.65730        0.39090
H         -3.79220        0.03390       -0.34380
H          4.97360       10.06790       -6.44040
H          6.57970        9.58640       -5.85950
H          6.03050       11.90800       -5.14940
H          6.18990       10.84830       -3.74520
H          4.58630       11.32080       -4.31660
H          3.69080        6.83620       -0.95640
H          2.59900        3.39870        2.02890
H          2.92750       -2.37110        4.19060
H          2.28580       -1.66290        5.68270
H          0.45640       -2.55030        4.27940
H          0.95380       -1.51910        2.93300
H          0.31630       -0.79390        4.41480
H          5.45180       11.71010        3.83940
H          7.16100       11.83280        4.30080
H          4.81320       11.61300        6.25020
H          5.71540       13.08930        5.88900
H          6.51500       11.74340        6.70670
H          6.35840        6.38670        7.29070
H          6.34750        4.21120        8.71850
