
  xtb     03012205543D
 energy: -321.746585178531 gnorm: 0.000352387699 xtb: 6.4.1 (unknown)
167187  0     0  0            999 V2000
    9.5049  -10.5177    6.5913 C   0  0  0  0  0  0  0  0  0  0  0  0
    8.8252  -10.0199    7.6451 C   0  0  0  0  0  0  0  0  0  0  0  0
    7.7931   -9.1151    7.2618 C   0  0  0  0  0  0  0  0  0  0  0  0
    6.8670   -8.4522    8.0859 C   0  0  0  0  0  0  0  0  0  0  0  0
    6.9023   -8.5843    9.5341 C   0  0  0  0  0  0  0  0  0  0  0  0
    8.3450   -8.2294   10.4383 S   0  0  0  0  0  0  0  0  0  0  0  0
    7.5744   -8.5613   11.9520 C   0  0  0  0  0  0  0  0  0  0  0  0
    8.2966   -8.3869   13.2422 C   0  0  0  0  0  0  0  0  0  0  0  0
    8.2062   -6.9379   13.7273 C   0  0  0  0  0  0  0  0  0  0  0  0
    6.2747   -8.9183   11.7516 C   0  0  0  0  0  0  0  0  0  0  0  0
    5.1893   -9.3254   13.0169 Cl  0  0  0  0  0  0  0  0  0  0  0  0
    5.8903   -8.9350   10.3835 C   0  0  0  0  0  0  0  0  0  0  0  0
    4.3307   -9.4307    9.8738 Cl  0  0  0  0  0  0  0  0  0  0  0  0
    5.9246   -7.6498    7.4572 C   0  0  0  0  0  0  0  0  0  0  0  0
    5.8750   -7.4930    6.0514 C   0  0  0  0  0  0  0  0  0  0  0  0
    6.7921   -8.1636    5.2240 C   0  0  0  0  0  0  0  0  0  0  0  0
    6.7215   -7.9924    3.7815 C   0  0  0  0  0  0  0  0  0  0  0  0
    5.2351   -8.2922    2.9277 S   0  0  0  0  0  0  0  0  0  0  0  0
    5.9021   -7.7720    1.4172 C   0  0  0  0  0  0  0  0  0  0  0  0
    5.0689   -7.7334    0.1831 C   0  0  0  0  0  0  0  0  0  0  0  0
    3.7543   -6.9901    0.4160 C   0  0  0  0  0  0  0  0  0  0  0  0
    7.2055   -7.4097    1.5800 C   0  0  0  0  0  0  0  0  0  0  0  0
    7.6764   -7.5400    2.9159 C   0  0  0  0  0  0  0  0  0  0  0  0
    9.2594   -7.0805    3.3851 Cl  0  0  0  0  0  0  0  0  0  0  0  0
    8.2025   -6.8218    0.3119 Cl  0  0  0  0  0  0  0  0  0  0  0  0
    7.7364   -8.9614    5.8547 C   0  0  0  0  0  0  0  0  0  0  0  0
    8.9479   -9.9283    5.0646 S   0  0  0  0  0  0  0  0  0  0  0  0
    4.8776   -6.5783    5.6585 C   0  0  0  0  0  0  0  0  0  0  0  0
    4.1622   -6.0427    6.6963 C   0  0  0  0  0  0  0  0  0  0  0  0
    4.7167   -6.6646    8.2393 S   0  0  0  0  0  0  0  0  0  0  0  0
    3.1145   -5.1006    6.5279 C   0  0  0  0  0  0  0  0  0  0  0  0
    2.2472   -4.4727    7.4282 C   0  0  0  0  0  0  0  0  0  0  0  0
    1.3305   -3.5758    6.7859 C   0  0  0  0  0  0  0  0  0  0  0  0
    0.3935   -2.8692    7.5673 C   0  0  0  0  0  0  0  0  0  0  0  0
    0.3716   -3.0507    8.9198 C   0  0  0  0  0  0  0  0  0  0  0  0
    1.2705   -3.9340    9.5503 C   0  0  0  0  0  0  0  0  0  0  0  0
    2.1926   -4.6342    8.8279 C   0  0  0  0  0  0  0  0  0  0  0  0
    1.5055   -3.5213    5.3981 C   0  0  0  0  0  0  0  0  0  0  0  0
    2.7865   -4.5786    4.9088 S   0  0  0  0  0  0  0  0  0  0  0  0
    0.8638   -2.7739    4.3777 C   0  0  0  0  0  0  0  0  0  0  0  0
    1.2143   -2.8187    3.0529 C   0  0  0  0  0  0  0  0  0  0  0  0
    0.4588   -1.9666    2.2238 C   0  0  0  0  0  0  0  0  0  0  0  0
    0.5685   -1.7985    0.8304 C   0  0  0  0  0  0  0  0  0  0  0  0
    1.5673   -2.5250    0.0638 C   0  0  0  0  0  0  0  0  0  0  0  0
    3.2499   -2.4888    0.5110 S   0  0  0  0  0  0  0  0  0  0  0  0
    3.7076   -3.5183   -0.8033 C   0  0  0  0  0  0  0  0  0  0  0  0
    5.1323   -3.8784   -1.0444 C   0  0  0  0  0  0  0  0  0  0  0  0
    5.8619   -2.7638   -1.7977 C   0  0  0  0  0  0  0  0  0  0  0  0
    2.6113   -3.8556   -1.5387 C   0  0  0  0  0  0  0  0  0  0  0  0
    2.6628   -4.8781   -2.9165 Cl  0  0  0  0  0  0  0  0  0  0  0  0
    1.3981   -3.2968   -1.0523 C   0  0  0  0  0  0  0  0  0  0  0  0
   -0.1210   -3.6453   -1.7652 Cl  0  0  0  0  0  0  0  0  0  0  0  0
   -0.3082   -0.8998    0.2392 C   0  0  0  0  0  0  0  0  0  0  0  0
   -1.2946   -0.1891    0.9700 C   0  0  0  0  0  0  0  0  0  0  0  0
   -1.4295   -0.3922    2.3565 C   0  0  0  0  0  0  0  0  0  0  0  0
   -2.4682    0.2792    3.1176 C   0  0  0  0  0  0  0  0  0  0  0  0
   -2.0993    1.1539    4.5742 S   0  0  0  0  0  0  0  0  0  0  0  0
   -3.7542    1.5967    4.8209 C   0  0  0  0  0  0  0  0  0  0  0  0
   -4.1675    2.3816    6.0163 C   0  0  0  0  0  0  0  0  0  0  0  0
   -4.2236    1.4920    7.2602 C   0  0  0  0  0  0  0  0  0  0  0  0
   -4.5355    1.0779    3.8322 C   0  0  0  0  0  0  0  0  0  0  0  0
   -3.8109    0.3344    2.8617 C   0  0  0  0  0  0  0  0  0  0  0  0
   -4.5831   -0.4729    1.5579 Cl  0  0  0  0  0  0  0  0  0  0  0  0
   -6.2355    1.2937    3.7399 Cl  0  0  0  0  0  0  0  0  0  0  0  0
   -0.5269   -1.2592    2.9536 C   0  0  0  0  0  0  0  0  0  0  0  0
   -0.4675   -1.6644    4.6481 S   0  0  0  0  0  0  0  0  0  0  0  0
   -2.0102    0.7128    0.1479 C   0  0  0  0  0  0  0  0  0  0  0  0
   -1.6110    0.6967   -1.1564 C   0  0  0  0  0  0  0  0  0  0  0  0
   -0.3074   -0.4384   -1.4377 S   0  0  0  0  0  0  0  0  0  0  0  0
   -2.1485    1.4439   -2.2426 C   0  0  0  0  0  0  0  0  0  0  0  0
   -1.6930    1.4857   -3.5278 C   0  0  0  0  0  0  0  0  0  0  0  0
   -2.4847    2.2872   -4.3823 C   0  0  0  0  0  0  0  0  0  0  0  0
   -2.2773    2.5694   -5.7458 C   0  0  0  0  0  0  0  0  0  0  0  0
   -1.2084    1.9271   -6.4901 C   0  0  0  0  0  0  0  0  0  0  0  0
   -0.0851    2.8491   -7.4451 S   0  0  0  0  0  0  0  0  0  0  0  0
    0.7736    1.4328   -7.9457 C   0  0  0  0  0  0  0  0  0  0  0  0
    1.9850    1.5278   -8.8058 C   0  0  0  0  0  0  0  0  0  0  0  0
    3.2360    1.7879   -7.9631 C   0  0  0  0  0  0  0  0  0  0  0  0
    0.2125    0.3194   -7.3951 C   0  0  0  0  0  0  0  0  0  0  0  0
    0.7896   -1.2745   -7.6615 Cl  0  0  0  0  0  0  0  0  0  0  0  0
   -0.9143    0.5936   -6.5742 C   0  0  0  0  0  0  0  0  0  0  0  0
   -1.8434   -0.6523   -5.8438 Cl  0  0  0  0  0  0  0  0  0  0  0  0
   -3.1387    3.4819   -6.3343 C   0  0  0  0  0  0  0  0  0  0  0  0
   -4.2257    4.0782   -5.6487 C   0  0  0  0  0  0  0  0  0  0  0  0
   -4.4645    3.7562   -4.2988 C   0  0  0  0  0  0  0  0  0  0  0  0
   -5.5839    4.3264   -3.5695 C   0  0  0  0  0  0  0  0  0  0  0  0
   -5.8483    6.0458   -3.5105 S   0  0  0  0  0  0  0  0  0  0  0  0
   -7.2463    5.8789   -2.5048 C   0  0  0  0  0  0  0  0  0  0  0  0
   -7.9898    7.0685   -2.0060 C   0  0  0  0  0  0  0  0  0  0  0  0
   -7.4125    7.5555   -0.6748 C   0  0  0  0  0  0  0  0  0  0  0  0
   -7.4772    4.5640   -2.2326 C   0  0  0  0  0  0  0  0  0  0  0  0
   -6.5417    3.6812   -2.8363 C   0  0  0  0  0  0  0  0  0  0  0  0
   -6.6825    1.9776   -2.7136 Cl  0  0  0  0  0  0  0  0  0  0  0  0
   -8.7791    4.0041   -1.2655 Cl  0  0  0  0  0  0  0  0  0  0  0  0
   -3.5738    2.8785   -3.6945 C   0  0  0  0  0  0  0  0  0  0  0  0
   -3.5870    2.4166   -2.0168 S   0  0  0  0  0  0  0  0  0  0  0  0
   -4.9728    4.9299   -6.4883 C   0  0  0  0  0  0  0  0  0  0  0  0
   -4.4924    5.0220   -7.7706 C   0  0  0  0  0  0  0  0  0  0  0  0
   -3.0745    4.0099   -7.9918 S   0  0  0  0  0  0  0  0  0  0  0  0
   -5.0447    5.8240   -8.7992 C   0  0  0  0  0  0  0  0  0  0  0  0
   -4.6464    6.0514  -10.1227 C   0  0  0  0  0  0  0  0  0  0  0  0
   -5.5015    6.9694  -10.8130 C   0  0  0  0  0  0  0  0  0  0  0  0
   -5.1878    7.3333  -12.1379 C   0  0  0  0  0  0  0  0  0  0  0  0
   -4.1034    6.7814  -12.7574 C   0  0  0  0  0  0  0  0  0  0  0  0
   -3.2855    5.8515  -12.0901 C   0  0  0  0  0  0  0  0  0  0  0  0
   -3.5398    5.4963  -10.7970 C   0  0  0  0  0  0  0  0  0  0  0  0
   -6.5629    7.4411  -10.0194 C   0  0  0  0  0  0  0  0  0  0  0  0
   -6.4653    6.7511   -8.4317 S   0  0  0  0  0  0  0  0  0  0  0  0
   -7.6428    8.2884  -10.3687 C   0  0  0  0  0  0  0  0  0  0  0  0
   -8.5036    9.0206   -9.5345 C   0  0  0  0  0  0  0  0  0  0  0  0
   -9.5363    9.6954  -10.2683 C   0  0  0  0  0  0  0  0  0  0  0  0
  -10.4943   10.4836   -9.5877 C   0  0  0  0  0  0  0  0  0  0  0  0
  -10.4156   10.6057   -8.2343 C   0  0  0  0  0  0  0  0  0  0  0  0
   -9.3825    9.9706   -7.5122 C   0  0  0  0  0  0  0  0  0  0  0  0
   -8.4461    9.1979   -8.1367 C   0  0  0  0  0  0  0  0  0  0  0  0
   -9.4515    9.4713  -11.6255 C   0  0  0  0  0  0  0  0  0  0  0  0
   -8.1395    8.4645  -12.0282 S   0  0  0  0  0  0  0  0  0  0  0  0
   10.3214  -11.2128    6.6041 H   0  0  0  0  0  0  0  0  0  0  0  0
    9.0345  -10.2833    8.6654 H   0  0  0  0  0  0  0  0  0  0  0  0
    9.3446   -8.6618   13.1116 H   0  0  0  0  0  0  0  0  0  0  0  0
    7.8496   -9.0494   13.9859 H   0  0  0  0  0  0  0  0  0  0  0  0
    8.6503   -6.2667   12.9959 H   0  0  0  0  0  0  0  0  0  0  0  0
    7.1670   -6.6544   13.8736 H   0  0  0  0  0  0  0  0  0  0  0  0
    8.7345   -6.8264   14.6702 H   0  0  0  0  0  0  0  0  0  0  0  0
    5.6468   -7.2447   -0.6031 H   0  0  0  0  0  0  0  0  0  0  0  0
    4.8504   -8.7542   -0.1425 H   0  0  0  0  0  0  0  0  0  0  0  0
    3.9442   -5.9844    0.7829 H   0  0  0  0  0  0  0  0  0  0  0  0
    3.1486   -7.5164    1.1498 H   0  0  0  0  0  0  0  0  0  0  0  0
    3.1943   -6.9188   -0.5122 H   0  0  0  0  0  0  0  0  0  0  0  0
    4.6921   -6.3053    4.6361 H   0  0  0  0  0  0  0  0  0  0  0  0
   -0.2973   -2.1931    7.0894 H   0  0  0  0  0  0  0  0  0  0  0  0
   -0.3444   -2.5134    9.5231 H   0  0  0  0  0  0  0  0  0  0  0  0
    1.2223   -4.0536   10.6220 H   0  0  0  0  0  0  0  0  0  0  0  0
    2.8784   -5.3104    9.3132 H   0  0  0  0  0  0  0  0  0  0  0  0
    2.0012   -3.4545    2.6903 H   0  0  0  0  0  0  0  0  0  0  0  0
    5.6325   -4.0549   -0.0904 H   0  0  0  0  0  0  0  0  0  0  0  0
    5.1633   -4.7969   -1.6326 H   0  0  0  0  0  0  0  0  0  0  0  0
    6.8975   -3.0462   -1.9662 H   0  0  0  0  0  0  0  0  0  0  0  0
    5.8400   -1.8416   -1.2219 H   0  0  0  0  0  0  0  0  0  0  0  0
    5.3876   -2.5851   -2.7595 H   0  0  0  0  0  0  0  0  0  0  0  0
   -5.1513    2.8140    5.8269 H   0  0  0  0  0  0  0  0  0  0  0  0
   -3.4549    3.1917    6.1834 H   0  0  0  0  0  0  0  0  0  0  0  0
   -3.2464    1.0559    7.4543 H   0  0  0  0  0  0  0  0  0  0  0  0
   -4.9408    0.6879    7.1164 H   0  0  0  0  0  0  0  0  0  0  0  0
   -4.5244    2.0772    8.1250 H   0  0  0  0  0  0  0  0  0  0  0  0
   -2.7836    1.3685    0.5043 H   0  0  0  0  0  0  0  0  0  0  0  0
   -0.8046    0.9675   -3.8402 H   0  0  0  0  0  0  0  0  0  0  0  0
    1.8558    2.3389   -9.5242 H   0  0  0  0  0  0  0  0  0  0  0  0
    2.1008    0.5896   -9.3517 H   0  0  0  0  0  0  0  0  0  0  0  0
    4.1116    1.8497   -8.6037 H   0  0  0  0  0  0  0  0  0  0  0  0
    3.3829    0.9820   -7.2486 H   0  0  0  0  0  0  0  0  0  0  0  0
    3.1348    2.7230   -7.4173 H   0  0  0  0  0  0  0  0  0  0  0  0
   -7.9291    7.8689   -2.7451 H   0  0  0  0  0  0  0  0  0  0  0  0
   -9.0379    6.7943   -1.8696 H   0  0  0  0  0  0  0  0  0  0  0  0
   -7.4769    6.7691    0.0726 H   0  0  0  0  0  0  0  0  0  0  0  0
   -7.9678    8.4198   -0.3205 H   0  0  0  0  0  0  0  0  0  0  0  0
   -6.3687    7.8355   -0.7959 H   0  0  0  0  0  0  0  0  0  0  0  0
   -5.8456    5.4672   -6.1644 H   0  0  0  0  0  0  0  0  0  0  0  0
   -5.7934    8.0592  -12.6556 H   0  0  0  0  0  0  0  0  0  0  0  0
   -3.8620    7.0634  -13.7711 H   0  0  0  0  0  0  0  0  0  0  0  0
   -2.4392    5.4271  -12.6086 H   0  0  0  0  0  0  0  0  0  0  0  0
   -2.8967    4.7984  -10.2864 H   0  0  0  0  0  0  0  0  0  0  0  0
  -11.2671   10.9765  -10.1579 H   0  0  0  0  0  0  0  0  0  0  0  0
  -11.1387   11.2019   -7.6979 H   0  0  0  0  0  0  0  0  0  0  0  0
   -9.3355   10.1076   -6.4422 H   0  0  0  0  0  0  0  0  0  0  0  0
   -7.6575    8.7363   -7.5646 H   0  0  0  0  0  0  0  0  0  0  0  0
  -10.0893    9.8501  -12.3987 H   0  0  0  0  0  0  0  0  0  0  0  0
  1  2  2  0  0  0  0
  2  3  1  0  0  0  0
  3  4  2  0  0  0  0
  4  5  1  0  0  0  0
  5  6  1  0  0  0  0
  6  7  1  0  0  0  0
  7  8  1  0  0  0  0
  8  9  1  0  0  0  0
  7 10  2  0  0  0  0
 10 11  1  0  0  0  0
 10 12  1  0  0  0  0
 12 13  1  0  0  0  0
  4 14  1  0  0  0  0
 14 15  2  0  0  0  0
 15 16  1  0  0  0  0
 16 17  1  0  0  0  0
 17 18  1  0  0  0  0
 18 19  1  0  0  0  0
 19 20  1  0  0  0  0
 20 21  1  0  0  0  0
 19 22  2  0  0  0  0
 22 23  1  0  0  0  0
 23 24  1  0  0  0  0
 22 25  1  0  0  0  0
 16 26  2  0  0  0  0
 26 27  1  0  0  0  0
 15 28  1  0  0  0  0
 28 29  2  0  0  0  0
 29 30  1  0  0  0  0
 29 31  1  0  0  0  0
 31 32  2  0  0  0  0
 32 33  1  0  0  0  0
 33 34  1  0  0  0  0
 34 35  2  0  0  0  0
 35 36  1  0  0  0  0
 36 37  2  0  0  0  0
 33 38  2  0  0  0  0
 38 39  1  0  0  0  0
 38 40  1  0  0  0  0
 40 41  2  0  0  0  0
 41 42  1  0  0  0  0
 42 43  2  0  0  0  0
 43 44  1  0  0  0  0
 44 45  1  0  0  0  0
 45 46  1  0  0  0  0
 46 47  1  0  0  0  0
 47 48  1  0  0  0  0
 46 49  2  0  0  0  0
 49 50  1  0  0  0  0
 49 51  1  0  0  0  0
 51 52  1  0  0  0  0
 43 53  1  0  0  0  0
 53 54  2  0  0  0  0
 54 55  1  0  0  0  0
 55 56  1  0  0  0  0
 56 57  1  0  0  0  0
 57 58  1  0  0  0  0
 58 59  1  0  0  0  0
 59 60  1  0  0  0  0
 58 61  2  0  0  0  0
 61 62  1  0  0  0  0
 62 63  1  0  0  0  0
 61 64  1  0  0  0  0
 55 65  2  0  0  0  0
 65 66  1  0  0  0  0
 54 67  1  0  0  0  0
 67 68  2  0  0  0  0
 68 69  1  0  0  0  0
 68 70  1  0  0  0  0
 70 71  2  0  0  0  0
 71 72  1  0  0  0  0
 72 73  2  0  0  0  0
 73 74  1  0  0  0  0
 74 75  1  0  0  0  0
 75 76  1  0  0  0  0
 76 77  1  0  0  0  0
 77 78  1  0  0  0  0
 76 79  2  0  0  0  0
 79 80  1  0  0  0  0
 79 81  1  0  0  0  0
 81 82  1  0  0  0  0
 73 83  1  0  0  0  0
 83 84  2  0  0  0  0
 84 85  1  0  0  0  0
 85 86  1  0  0  0  0
 86 87  1  0  0  0  0
 87 88  1  0  0  0  0
 88 89  1  0  0  0  0
 89 90  1  0  0  0  0
 88 91  2  0  0  0  0
 91 92  1  0  0  0  0
 92 93  1  0  0  0  0
 91 94  1  0  0  0  0
 85 95  2  0  0  0  0
 95 96  1  0  0  0  0
 84 97  1  0  0  0  0
 97 98  2  0  0  0  0
 98 99  1  0  0  0  0
 98100  1  0  0  0  0
100101  2  0  0  0  0
101102  1  0  0  0  0
102103  1  0  0  0  0
103104  2  0  0  0  0
104105  1  0  0  0  0
105106  2  0  0  0  0
102107  2  0  0  0  0
107108  1  0  0  0  0
107109  1  0  0  0  0
109110  2  0  0  0  0
110111  1  0  0  0  0
111112  1  0  0  0  0
112113  2  0  0  0  0
113114  1  0  0  0  0
114115  2  0  0  0  0
111116  2  0  0  0  0
116117  1  0  0  0  0
 27  1  1  0  0  0  0
 39 31  1  0  0  0  0
 66 40  1  0  0  0  0
 96 70  1  0  0  0  0
108100  1  0  0  0  0
117109  1  0  0  0  0
 26  3  1  0  0  0  0
 37 32  1  0  0  0  0
 65 42  1  0  0  0  0
 95 72  1  0  0  0  0
106101  1  0  0  0  0
115110  1  0  0  0  0
 12  5  2  0  0  0  0
 30 14  1  0  0  0  0
 51 44  2  0  0  0  0
 69 53  1  0  0  0  0
 81 74  2  0  0  0  0
 99 83  1  0  0  0  0
 23 17  2  0  0  0  0
 62 56  2  0  0  0  0
 92 86  2  0  0  0  0
  1118  1  0  0  0  0
  2119  1  0  0  0  0
  8120  1  0  0  0  0
  8121  1  0  0  0  0
  9122  1  0  0  0  0
  9123  1  0  0  0  0
  9124  1  0  0  0  0
 20125  1  0  0  0  0
 20126  1  0  0  0  0
 21127  1  0  0  0  0
 21128  1  0  0  0  0
 21129  1  0  0  0  0
 28130  1  0  0  0  0
 34131  1  0  0  0  0
 35132  1  0  0  0  0
 36133  1  0  0  0  0
 37134  1  0  0  0  0
 41135  1  0  0  0  0
 47136  1  0  0  0  0
 47137  1  0  0  0  0
 48138  1  0  0  0  0
 48139  1  0  0  0  0
 48140  1  0  0  0  0
 59141  1  0  0  0  0
 59142  1  0  0  0  0
 60143  1  0  0  0  0
 60144  1  0  0  0  0
 60145  1  0  0  0  0
 67146  1  0  0  0  0
 71147  1  0  0  0  0
 77148  1  0  0  0  0
 77149  1  0  0  0  0
 78150  1  0  0  0  0
 78151  1  0  0  0  0
 78152  1  0  0  0  0
 89153  1  0  0  0  0
 89154  1  0  0  0  0
 90155  1  0  0  0  0
 90156  1  0  0  0  0
 90157  1  0  0  0  0
 97158  1  0  0  0  0
103159  1  0  0  0  0
104160  1  0  0  0  0
105161  1  0  0  0  0
106162  1  0  0  0  0
112163  1  0  0  0  0
113164  1  0  0  0  0
114165  1  0  0  0  0
115166  1  0  0  0  0
116167  1  0  0  0  0
M  END
