72

C         -6.01860      -12.44560       -1.10550
C         -4.79490      -11.94720       -1.37010
C         -4.83790      -10.52210       -1.05330
C         -4.17430       -9.35900       -1.00450
C         -5.17710       -8.36560       -0.48710
N         -6.34280       -8.91650       -0.25300
C         -6.20200      -10.24300       -0.58070
C         -6.91580      -11.39280       -0.60960
C         -4.91670       -6.99010       -0.26040
C         -5.82770       -6.07990        0.22770
C         -5.15790       -4.81480        0.32320
C         -5.24920       -3.51730        0.68220
C         -3.89840       -2.95200        0.41560
N         -3.06210       -3.85700       -0.05970
C         -3.77670       -5.01960       -0.14660
C         -3.62010       -6.31770       -0.49520
C         -3.45060       -1.64450        0.68310
C         -4.13190       -0.45840        1.02290
C         -3.24090        0.61510        1.32320
C         -3.75190        1.90210        1.57000
C         -5.10540        2.10220        1.57180
C         -5.98620        1.04230        1.30570
C         -5.51640       -0.21160        1.01980
C         -1.88360        0.24510        1.20940
S         -1.73500       -1.38720        0.64560
C         -0.74730        1.03570        1.48130
C         -0.55350        1.96690        2.52090
C          0.70610        2.63250        2.44240
C          1.07130        3.52670        3.46530
C          0.21460        3.75370        4.50810
C         -1.01620        3.08250        4.59220
C         -1.39470        2.19070        3.62690
C          1.47750        2.21540        1.33790
S          0.67000        0.93170        0.48990
C          2.69950        2.71280        0.83480
C          3.32060        3.91520        1.10130
C          4.50260        3.97750        0.29570
C          5.57950        4.70360       -0.07180
C          6.28260        3.85960       -1.07590
N          5.67310        2.71450       -1.29200
C          4.56590        2.72720       -0.48220
C          3.49070        1.96980       -0.17690
C          7.47100        4.23230       -1.74930
C          8.18420        5.39560       -1.62110
C          9.30450        5.31270       -2.52340
C         10.40480        5.92080       -3.02150
C         10.95180        4.95460       -3.99510
N         10.27350        3.86660       -4.09780
C          9.21310        4.01140       -3.20170
C          8.13060        3.35260       -2.75810
H         -6.33200      -13.46730       -1.22820
H         -3.93730      -12.47530       -1.74220
H         -3.15900       -9.12510       -1.26140
H         -7.94120      -11.55300       -0.33250
H         -6.84610       -6.29610        0.48520
H         -6.07300       -2.99140        1.12150
H         -2.73660       -6.80070       -0.86630
H         -3.07280        2.72530        1.72800
H         -5.50470        3.08800        1.75580
H         -7.04920        1.23110        1.29750
H         -6.20600       -0.99470        0.75380
H          2.04060        3.99520        3.44770
H          0.49690        4.43480        5.29680
H         -1.65490        3.25630        5.44500
H         -2.31520        1.63570        3.71810
H          2.96860        4.70450        1.73560
H          5.90510        5.67310        0.25110
H          3.21660        1.00240       -0.55440
H          7.96570        6.22610       -0.97650
H         10.83270        6.88080       -2.80230
H         11.83830        5.11690       -4.58370
H          7.74390        2.38770       -3.02260
