
  xtb     03012203113D
 energy: -383.816240881123 gnorm: 0.000657011565 xtb: 6.4.1 (unknown)
196219  0     0  0            999 V2000
   12.0679   -3.0742   13.0487 C   0  0  0  0  0  0  0  0  0  0  0  0
   11.5888   -3.3340   11.8148 C   0  0  0  0  0  0  0  0  0  0  0  0
   10.9135   -2.2193   11.2390 C   0  0  0  0  0  0  0  0  0  0  0  0
   10.2752   -2.1340    9.9922 C   0  0  0  0  0  0  0  0  0  0  0  0
   10.2167   -3.2607    9.0731 C   0  0  0  0  0  0  0  0  0  0  0  0
    9.5525   -4.7928    9.5586 S   0  0  0  0  0  0  0  0  0  0  0  0
    9.7776   -5.4799    7.9863 C   0  0  0  0  0  0  0  0  0  0  0  0
    9.3340   -6.8665    7.6747 C   0  0  0  0  0  0  0  0  0  0  0  0
    7.8718   -6.8830    7.2221 C   0  0  0  0  0  0  0  0  0  0  0  0
   10.3313   -4.5616    7.1460 C   0  0  0  0  0  0  0  0  0  0  0  0
   10.7144   -4.8788    5.5040 Cl  0  0  0  0  0  0  0  0  0  0  0  0
   10.5835   -3.3039    7.7569 C   0  0  0  0  0  0  0  0  0  0  0  0
   11.3468   -2.0155    6.9235 Cl  0  0  0  0  0  0  0  0  0  0  0  0
    9.6649   -0.9275    9.6782 C   0  0  0  0  0  0  0  0  0  0  0  0
    9.6704    0.1954   10.5420 C   0  0  0  0  0  0  0  0  0  0  0  0
   10.3352    0.1184   11.7773 C   0  0  0  0  0  0  0  0  0  0  0  0
   10.3807    1.2469   12.6936 C   0  0  0  0  0  0  0  0  0  0  0  0
    8.9283    2.0149   13.2665 S   0  0  0  0  0  0  0  0  0  0  0  0
    9.8109    3.1260   14.2570 C   0  0  0  0  0  0  0  0  0  0  0  0
    9.1132    4.1077   15.1323 C   0  0  0  0  0  0  0  0  0  0  0  0
    8.8238    3.5004   16.5073 C   0  0  0  0  0  0  0  0  0  0  0  0
   11.1498    2.9000   14.1425 C   0  0  0  0  0  0  0  0  0  0  0  0
   11.4772    1.8391   13.2559 C   0  0  0  0  0  0  0  0  0  0  0  0
   13.0959    1.4198   12.8819 Cl  0  0  0  0  0  0  0  0  0  0  0  0
   12.3452    3.8076   14.9746 Cl  0  0  0  0  0  0  0  0  0  0  0  0
   10.9357   -1.0945   12.0977 C   0  0  0  0  0  0  0  0  0  0  0  0
   11.7492   -1.4645   13.5915 S   0  0  0  0  0  0  0  0  0  0  0  0
    8.9591    1.2924    9.9965 C   0  0  0  0  0  0  0  0  0  0  0  0
    8.4040    1.0358    8.7734 C   0  0  0  0  0  0  0  0  0  0  0  0
    8.7541   -0.6029    8.2371 S   0  0  0  0  0  0  0  0  0  0  0  0
    7.6012    1.8415    7.9195 C   0  0  0  0  0  0  0  0  0  0  0  0
    7.3370    3.2177    7.9006 C   0  0  0  0  0  0  0  0  0  0  0  0
    6.4298    3.5912    6.8542 C   0  0  0  0  0  0  0  0  0  0  0  0
    6.0605    4.9435    6.7046 C   0  0  0  0  0  0  0  0  0  0  0  0
    6.5810    5.8830    7.5464 C   0  0  0  0  0  0  0  0  0  0  0  0
    7.4947    5.5225    8.5554 C   0  0  0  0  0  0  0  0  0  0  0  0
    7.8709    4.2227    8.7339 C   0  0  0  0  0  0  0  0  0  0  0  0
    6.0195    2.5029    6.0736 C   0  0  0  0  0  0  0  0  0  0  0  0
    6.7565    1.0432    6.6404 S   0  0  0  0  0  0  0  0  0  0  0  0
    5.1551    2.4043    4.9530 C   0  0  0  0  0  0  0  0  0  0  0  0
    4.8770    1.2358    4.2928 C   0  0  0  0  0  0  0  0  0  0  0  0
    3.9983    1.3798    3.2009 C   0  0  0  0  0  0  0  0  0  0  0  0
    3.4906    0.3642    2.3685 C   0  0  0  0  0  0  0  0  0  0  0  0
    3.9476   -1.0062    2.5258 C   0  0  0  0  0  0  0  0  0  0  0  0
    5.6506   -1.3685    2.5380 S   0  0  0  0  0  0  0  0  0  0  0  0
    5.3740   -3.0572    2.7952 C   0  0  0  0  0  0  0  0  0  0  0  0
    6.5158   -3.9949    2.9775 C   0  0  0  0  0  0  0  0  0  0  0  0
    7.2249   -3.7447    4.3104 C   0  0  0  0  0  0  0  0  0  0  0  0
    4.0367   -3.3103    2.8564 C   0  0  0  0  0  0  0  0  0  0  0  0
    3.3655   -4.8697    3.1083 Cl  0  0  0  0  0  0  0  0  0  0  0  0
    3.2247   -2.1534    2.6982 C   0  0  0  0  0  0  0  0  0  0  0  0
    1.5166   -2.2115    2.8182 Cl  0  0  0  0  0  0  0  0  0  0  0  0
    2.5604    0.7456    1.4120 C   0  0  0  0  0  0  0  0  0  0  0  0
    2.1447    2.0912    1.2415 C   0  0  0  0  0  0  0  0  0  0  0  0
    2.6742    3.1103    2.0577 C   0  0  0  0  0  0  0  0  0  0  0  0
    2.2680    4.4951    1.8844 C   0  0  0  0  0  0  0  0  0  0  0  0
    0.5867    4.9441    1.8543 S   0  0  0  0  0  0  0  0  0  0  0  0
    0.9525    6.6192    1.6191 C   0  0  0  0  0  0  0  0  0  0  0  0
   -0.1317    7.6212    1.4268 C   0  0  0  0  0  0  0  0  0  0  0  0
   -0.6618    7.5824   -0.0090 C   0  0  0  0  0  0  0  0  0  0  0  0
    2.3014    6.8036    1.5693 C   0  0  0  0  0  0  0  0  0  0  0  0
    3.0503    5.6054    1.7257 C   0  0  0  0  0  0  0  0  0  0  0  0
    4.7606    5.5775    1.6220 Cl  0  0  0  0  0  0  0  0  0  0  0  0
    3.0513    8.3297    1.3374 Cl  0  0  0  0  0  0  0  0  0  0  0  0
    3.5846    2.7243    3.0301 C   0  0  0  0  0  0  0  0  0  0  0  0
    4.3111    3.7596    4.2280 S   0  0  0  0  0  0  0  0  0  0  0  0
    1.2177    2.2240    0.1836 C   0  0  0  0  0  0  0  0  0  0  0  0
    0.9110    1.0415   -0.4288 C   0  0  0  0  0  0  0  0  0  0  0  0
    1.7908   -0.3036    0.2579 S   0  0  0  0  0  0  0  0  0  0  0  0
   -0.0426    0.8467   -1.4718 C   0  0  0  0  0  0  0  0  0  0  0  0
   -0.8161    1.8066   -2.0618 C   0  0  0  0  0  0  0  0  0  0  0  0
   -1.7151    1.2953   -3.0245 C   0  0  0  0  0  0  0  0  0  0  0  0
   -2.6934    2.0014   -3.7502 C   0  0  0  0  0  0  0  0  0  0  0  0
   -2.8210    3.4445   -3.6261 C   0  0  0  0  0  0  0  0  0  0  0  0
   -1.4569    4.4926   -3.8912 S   0  0  0  0  0  0  0  0  0  0  0  0
   -2.3866    5.9173   -3.5750 C   0  0  0  0  0  0  0  0  0  0  0  0
   -1.7884    7.2757   -3.6910 C   0  0  0  0  0  0  0  0  0  0  0  0
   -1.9298    7.8147   -5.1166 C   0  0  0  0  0  0  0  0  0  0  0  0
   -3.6766    5.5844   -3.2893 C   0  0  0  0  0  0  0  0  0  0  0  0
   -4.8960    6.7318   -2.9132 Cl  0  0  0  0  0  0  0  0  0  0  0  0
   -3.9269    4.1856   -3.3139 C   0  0  0  0  0  0  0  0  0  0  0  0
   -5.4519    3.5212   -2.9008 Cl  0  0  0  0  0  0  0  0  0  0  0  0
   -3.5262    1.2547   -4.5695 C   0  0  0  0  0  0  0  0  0  0  0  0
   -3.4227   -0.1537   -4.6970 C   0  0  0  0  0  0  0  0  0  0  0  0
   -2.4306   -0.8568   -3.9886 C   0  0  0  0  0  0  0  0  0  0  0  0
   -2.2943   -2.2981   -4.1126 C   0  0  0  0  0  0  0  0  0  0  0  0
   -3.6490   -3.3625   -3.8673 S   0  0  0  0  0  0  0  0  0  0  0  0
   -2.6985   -4.7749   -4.1718 C   0  0  0  0  0  0  0  0  0  0  0  0
   -3.2854   -6.1401   -4.0797 C   0  0  0  0  0  0  0  0  0  0  0  0
   -3.1346   -6.7074   -2.6662 C   0  0  0  0  0  0  0  0  0  0  0  0
   -1.4073   -4.4275   -4.4352 C   0  0  0  0  0  0  0  0  0  0  0  0
   -1.1740   -3.0265   -4.4051 C   0  0  0  0  0  0  0  0  0  0  0  0
    0.3482   -2.3428   -4.7943 Cl  0  0  0  0  0  0  0  0  0  0  0  0
   -0.1691   -5.5604   -4.7911 Cl  0  0  0  0  0  0  0  0  0  0  0  0
   -1.6026   -0.1112   -3.1597 C   0  0  0  0  0  0  0  0  0  0  0  0
   -0.3815   -0.7497   -2.0984 S   0  0  0  0  0  0  0  0  0  0  0  0
   -4.3772   -0.6702   -5.5978 C   0  0  0  0  0  0  0  0  0  0  0  0
   -5.1945    0.2778   -6.1563 C   0  0  0  0  0  0  0  0  0  0  0  0
   -4.7842    1.8867   -5.5931 S   0  0  0  0  0  0  0  0  0  0  0  0
   -6.2788    0.0059   -7.0307 C   0  0  0  0  0  0  0  0  0  0  0  0
   -7.0977    0.8517   -7.7899 C   0  0  0  0  0  0  0  0  0  0  0  0
   -8.1096    0.1411   -8.5150 C   0  0  0  0  0  0  0  0  0  0  0  0
   -8.9617    0.8525   -9.3858 C   0  0  0  0  0  0  0  0  0  0  0  0
   -8.8426    2.2083   -9.4875 C   0  0  0  0  0  0  0  0  0  0  0  0
   -7.8750    2.9109   -8.7433 C   0  0  0  0  0  0  0  0  0  0  0  0
   -7.0090    2.2530   -7.9192 C   0  0  0  0  0  0  0  0  0  0  0  0
   -8.0731   -1.2386   -8.2772 C   0  0  0  0  0  0  0  0  0  0  0  0
   -6.7658   -1.6446   -7.2232 S   0  0  0  0  0  0  0  0  0  0  0  0
   -8.9293   -2.2797   -8.7297 C   0  0  0  0  0  0  0  0  0  0  0  0
  -10.2112   -2.2153   -9.1991 C   0  0  0  0  0  0  0  0  0  0  0  0
  -10.7635   -3.4787   -9.5235 C   0  0  0  0  0  0  0  0  0  0  0  0
  -12.0396   -3.7592  -10.0415 C   0  0  0  0  0  0  0  0  0  0  0  0
  -12.9725   -2.6904  -10.3574 C   0  0  0  0  0  0  0  0  0  0  0  0
  -12.5072   -1.3739  -11.3971 S   0  0  0  0  0  0  0  0  0  0  0  0
  -14.0643   -0.6260  -11.2844 C   0  0  0  0  0  0  0  0  0  0  0  0
  -14.3758    0.6191  -12.0386 C   0  0  0  0  0  0  0  0  0  0  0  0
  -14.6869    0.3089  -13.5044 C   0  0  0  0  0  0  0  0  0  0  0  0
  -14.8855   -1.3668  -10.4891 C   0  0  0  0  0  0  0  0  0  0  0  0
  -16.5106   -0.9454  -10.1342 Cl  0  0  0  0  0  0  0  0  0  0  0  0
  -14.2703   -2.5334   -9.9580 C   0  0  0  0  0  0  0  0  0  0  0  0
  -15.0739   -3.5685   -8.8544 Cl  0  0  0  0  0  0  0  0  0  0  0  0
  -12.3537   -5.0969  -10.2555 C   0  0  0  0  0  0  0  0  0  0  0  0
  -11.4589   -6.1554   -9.9645 C   0  0  0  0  0  0  0  0  0  0  0  0
  -10.1800   -5.8729   -9.4605 C   0  0  0  0  0  0  0  0  0  0  0  0
   -9.2117   -6.9232   -9.1864 C   0  0  0  0  0  0  0  0  0  0  0  0
   -8.4428   -7.0500   -7.6326 S   0  0  0  0  0  0  0  0  0  0  0  0
   -7.4996   -8.4157   -8.1238 C   0  0  0  0  0  0  0  0  0  0  0  0
   -6.5161   -9.0375   -7.1949 C   0  0  0  0  0  0  0  0  0  0  0  0
   -5.2879   -8.1422   -7.0179 C   0  0  0  0  0  0  0  0  0  0  0  0
   -7.7703   -8.7368   -9.4201 C   0  0  0  0  0  0  0  0  0  0  0  0
   -8.7443   -7.8957  -10.0245 C   0  0  0  0  0  0  0  0  0  0  0  0
   -9.2088   -8.0538  -11.6696 Cl  0  0  0  0  0  0  0  0  0  0  0  0
   -7.0232  -10.0293  -10.2671 Cl  0  0  0  0  0  0  0  0  0  0  0  0
   -9.8679   -4.5383   -9.2447 C   0  0  0  0  0  0  0  0  0  0  0  0
   -8.3511   -3.9386   -8.6429 S   0  0  0  0  0  0  0  0  0  0  0  0
  -12.0370   -7.4261  -10.2502 C   0  0  0  0  0  0  0  0  0  0  0  0
  -13.2771   -7.3307  -10.7715 C   0  0  0  0  0  0  0  0  0  0  0  0
  -13.8378   -5.7035  -10.9328 S   0  0  0  0  0  0  0  0  0  0  0  0
   12.6092   -3.7347   13.6974 H   0  0  0  0  0  0  0  0  0  0  0  0
   11.7020   -4.2796   11.3176 H   0  0  0  0  0  0  0  0  0  0  0  0
    9.4475   -7.4916    8.5619 H   0  0  0  0  0  0  0  0  0  0  0  0
    9.9662   -7.2670    6.8798 H   0  0  0  0  0  0  0  0  0  0  0  0
    7.2299   -6.4864    8.0049 H   0  0  0  0  0  0  0  0  0  0  0  0
    7.5625   -7.9003    6.9984 H   0  0  0  0  0  0  0  0  0  0  0  0
    7.7467   -6.2757    6.3295 H   0  0  0  0  0  0  0  0  0  0  0  0
    9.7492    4.9874   15.2495 H   0  0  0  0  0  0  0  0  0  0  0  0
    8.1760    4.4110   14.6629 H   0  0  0  0  0  0  0  0  0  0  0  0
    8.3196    4.2276   17.1379 H   0  0  0  0  0  0  0  0  0  0  0  0
    8.1880    2.6238   16.4069 H   0  0  0  0  0  0  0  0  0  0  0  0
    9.7514    3.2036   16.9898 H   0  0  0  0  0  0  0  0  0  0  0  0
    8.8392    2.2190   10.5234 H   0  0  0  0  0  0  0  0  0  0  0  0
    5.3745    5.2259    5.9223 H   0  0  0  0  0  0  0  0  0  0  0  0
    6.3030    6.9200    7.4354 H   0  0  0  0  0  0  0  0  0  0  0  0
    7.9048    6.2932    9.1907 H   0  0  0  0  0  0  0  0  0  0  0  0
    8.5882    3.9645    9.4945 H   0  0  0  0  0  0  0  0  0  0  0  0
    5.2901    0.2935    4.6030 H   0  0  0  0  0  0  0  0  0  0  0  0
    7.2299   -3.8623    2.1616 H   0  0  0  0  0  0  0  0  0  0  0  0
    6.1356   -5.0171    2.9437 H   0  0  0  0  0  0  0  0  0  0  0  0
    7.6005   -2.7250    4.3545 H   0  0  0  0  0  0  0  0  0  0  0  0
    8.0640   -4.4263    4.4191 H   0  0  0  0  0  0  0  0  0  0  0  0
    6.5388   -3.8964    5.1406 H   0  0  0  0  0  0  0  0  0  0  0  0
    0.2668    8.6135    1.6443 H   0  0  0  0  0  0  0  0  0  0  0  0
   -0.9488    7.4117    2.1195 H   0  0  0  0  0  0  0  0  0  0  0  0
    0.1395    7.7987   -0.7113 H   0  0  0  0  0  0  0  0  0  0  0  0
   -1.0696    6.6000   -0.2363 H   0  0  0  0  0  0  0  0  0  0  0  0
   -1.4469    8.3226   -0.1363 H   0  0  0  0  0  0  0  0  0  0  0  0
    0.7883    3.1617   -0.1129 H   0  0  0  0  0  0  0  0  0  0  0  0
   -0.7594    2.8464   -1.8015 H   0  0  0  0  0  0  0  0  0  0  0  0
   -0.7323    7.2305   -3.4215 H   0  0  0  0  0  0  0  0  0  0  0  0
   -2.2998    7.9446   -2.9962 H   0  0  0  0  0  0  0  0  0  0  0  0
   -1.4935    8.8075   -5.1848 H   0  0  0  0  0  0  0  0  0  0  0  0
   -2.9790    7.8749   -5.3939 H   0  0  0  0  0  0  0  0  0  0  0  0
   -1.4209    7.1602   -5.8202 H   0  0  0  0  0  0  0  0  0  0  0  0
   -4.3428   -6.0970   -4.3449 H   0  0  0  0  0  0  0  0  0  0  0  0
   -2.7705   -6.7901   -4.7902 H   0  0  0  0  0  0  0  0  0  0  0  0
   -3.6453   -6.0711   -1.9475 H   0  0  0  0  0  0  0  0  0  0  0  0
   -2.0841   -6.7653   -2.3937 H   0  0  0  0  0  0  0  0  0  0  0  0
   -3.5635   -7.7046   -2.6164 H   0  0  0  0  0  0  0  0  0  0  0  0
   -4.4655   -1.7141   -5.8382 H   0  0  0  0  0  0  0  0  0  0  0  0
   -9.6803    0.3202   -9.9871 H   0  0  0  0  0  0  0  0  0  0  0  0
   -9.4899    2.7568  -10.1552 H   0  0  0  0  0  0  0  0  0  0  0  0
   -7.8107    3.9835   -8.8464 H   0  0  0  0  0  0  0  0  0  0  0  0
   -6.2517    2.7934   -7.3746 H   0  0  0  0  0  0  0  0  0  0  0  0
  -10.7720   -1.3030   -9.2627 H   0  0  0  0  0  0  0  0  0  0  0  0
  -13.5229    1.2986  -11.9858 H   0  0  0  0  0  0  0  0  0  0  0  0
  -15.2372    1.1013  -11.5737 H   0  0  0  0  0  0  0  0  0  0  0  0
  -13.8326   -0.1694  -13.9776 H   0  0  0  0  0  0  0  0  0  0  0  0
  -14.9149    1.2264  -14.0401 H   0  0  0  0  0  0  0  0  0  0  0  0
  -15.5422   -0.3580  -13.5750 H   0  0  0  0  0  0  0  0  0  0  0  0
   -6.9870   -9.1995   -6.2230 H   0  0  0  0  0  0  0  0  0  0  0  0
   -6.2151  -10.0042   -7.6018 H   0  0  0  0  0  0  0  0  0  0  0  0
   -5.5837   -7.1713   -6.6272 H   0  0  0  0  0  0  0  0  0  0  0  0
   -4.7887   -7.9935   -7.9720 H   0  0  0  0  0  0  0  0  0  0  0  0
   -4.5876   -8.6020   -6.3258 H   0  0  0  0  0  0  0  0  0  0  0  0
  -11.5391   -8.3592  -10.0626 H   0  0  0  0  0  0  0  0  0  0  0  0
  -13.9269   -8.1276  -11.0763 H   0  0  0  0  0  0  0  0  0  0  0  0
  1  2  2  0  0  0  0
  2  3  1  0  0  0  0
  3  4  2  0  0  0  0
  4  5  1  0  0  0  0
  5  6  1  0  0  0  0
  6  7  1  0  0  0  0
  7  8  1  0  0  0  0
  8  9  1  0  0  0  0
  7 10  2  0  0  0  0
 10 11  1  0  0  0  0
 10 12  1  0  0  0  0
 12 13  1  0  0  0  0
  4 14  1  0  0  0  0
 14 15  2  0  0  0  0
 15 16  1  0  0  0  0
 16 17  1  0  0  0  0
 17 18  1  0  0  0  0
 18 19  1  0  0  0  0
 19 20  1  0  0  0  0
 20 21  1  0  0  0  0
 19 22  2  0  0  0  0
 22 23  1  0  0  0  0
 23 24  1  0  0  0  0
 22 25  1  0  0  0  0
 16 26  2  0  0  0  0
 26 27  1  0  0  0  0
 15 28  1  0  0  0  0
 28 29  2  0  0  0  0
 29 30  1  0  0  0  0
 29 31  1  0  0  0  0
 31 32  2  0  0  0  0
 32 33  1  0  0  0  0
 33 34  1  0  0  0  0
 34 35  2  0  0  0  0
 35 36  1  0  0  0  0
 36 37  2  0  0  0  0
 33 38  2  0  0  0  0
 38 39  1  0  0  0  0
 38 40  1  0  0  0  0
 40 41  2  0  0  0  0
 41 42  1  0  0  0  0
 42 43  2  0  0  0  0
 43 44  1  0  0  0  0
 44 45  1  0  0  0  0
 45 46  1  0  0  0  0
 46 47  1  0  0  0  0
 47 48  1  0  0  0  0
 46 49  2  0  0  0  0
 49 50  1  0  0  0  0
 49 51  1  0  0  0  0
 51 52  1  0  0  0  0
 43 53  1  0  0  0  0
 53 54  2  0  0  0  0
 54 55  1  0  0  0  0
 55 56  1  0  0  0  0
 56 57  1  0  0  0  0
 57 58  1  0  0  0  0
 58 59  1  0  0  0  0
 59 60  1  0  0  0  0
 58 61  2  0  0  0  0
 61 62  1  0  0  0  0
 62 63  1  0  0  0  0
 61 64  1  0  0  0  0
 55 65  2  0  0  0  0
 65 66  1  0  0  0  0
 54 67  1  0  0  0  0
 67 68  2  0  0  0  0
 68 69  1  0  0  0  0
 68 70  1  0  0  0  0
 70 71  2  0  0  0  0
 71 72  1  0  0  0  0
 72 73  2  0  0  0  0
 73 74  1  0  0  0  0
 74 75  1  0  0  0  0
 75 76  1  0  0  0  0
 76 77  1  0  0  0  0
 77 78  1  0  0  0  0
 76 79  2  0  0  0  0
 79 80  1  0  0  0  0
 79 81  1  0  0  0  0
 81 82  1  0  0  0  0
 73 83  1  0  0  0  0
 83 84  2  0  0  0  0
 84 85  1  0  0  0  0
 85 86  1  0  0  0  0
 86 87  1  0  0  0  0
 87 88  1  0  0  0  0
 88 89  1  0  0  0  0
 89 90  1  0  0  0  0
 88 91  2  0  0  0  0
 91 92  1  0  0  0  0
 92 93  1  0  0  0  0
 91 94  1  0  0  0  0
 85 95  2  0  0  0  0
 95 96  1  0  0  0  0
 84 97  1  0  0  0  0
 97 98  2  0  0  0  0
 98 99  1  0  0  0  0
 98100  1  0  0  0  0
100101  2  0  0  0  0
101102  1  0  0  0  0
102103  1  0  0  0  0
103104  2  0  0  0  0
104105  1  0  0  0  0
105106  2  0  0  0  0
102107  2  0  0  0  0
107108  1  0  0  0  0
107109  1  0  0  0  0
109110  2  0  0  0  0
110111  1  0  0  0  0
111112  2  0  0  0  0
112113  1  0  0  0  0
113114  1  0  0  0  0
114115  1  0  0  0  0
115116  1  0  0  0  0
116117  1  0  0  0  0
115118  2  0  0  0  0
118119  1  0  0  0  0
118120  1  0  0  0  0
120121  1  0  0  0  0
112122  1  0  0  0  0
122123  2  0  0  0  0
123124  1  0  0  0  0
124125  1  0  0  0  0
125126  1  0  0  0  0
126127  1  0  0  0  0
127128  1  0  0  0  0
128129  1  0  0  0  0
127130  2  0  0  0  0
130131  1  0  0  0  0
131132  1  0  0  0  0
130133  1  0  0  0  0
124134  2  0  0  0  0
134135  1  0  0  0  0
123136  1  0  0  0  0
136137  2  0  0  0  0
137138  1  0  0  0  0
 27  1  1  0  0  0  0
 39 31  1  0  0  0  0
 66 40  1  0  0  0  0
 96 70  1  0  0  0  0
108100  1  0  0  0  0
135109  1  0  0  0  0
 26  3  1  0  0  0  0
 37 32  1  0  0  0  0
 65 42  1  0  0  0  0
 95 72  1  0  0  0  0
106101  1  0  0  0  0
134111  1  0  0  0  0
 12  5  2  0  0  0  0
 30 14  1  0  0  0  0
 51 44  2  0  0  0  0
 69 53  1  0  0  0  0
 81 74  2  0  0  0  0
 99 83  1  0  0  0  0
120113  2  0  0  0  0
138122  1  0  0  0  0
 23 17  2  0  0  0  0
 62 56  2  0  0  0  0
 92 86  2  0  0  0  0
131125  2  0  0  0  0
  1139  1  0  0  0  0
  2140  1  0  0  0  0
  8141  1  0  0  0  0
  8142  1  0  0  0  0
  9143  1  0  0  0  0
  9144  1  0  0  0  0
  9145  1  0  0  0  0
 20146  1  0  0  0  0
 20147  1  0  0  0  0
 21148  1  0  0  0  0
 21149  1  0  0  0  0
 21150  1  0  0  0  0
 28151  1  0  0  0  0
 34152  1  0  0  0  0
 35153  1  0  0  0  0
 36154  1  0  0  0  0
 37155  1  0  0  0  0
 41156  1  0  0  0  0
 47157  1  0  0  0  0
 47158  1  0  0  0  0
 48159  1  0  0  0  0
 48160  1  0  0  0  0
 48161  1  0  0  0  0
 59162  1  0  0  0  0
 59163  1  0  0  0  0
 60164  1  0  0  0  0
 60165  1  0  0  0  0
 60166  1  0  0  0  0
 67167  1  0  0  0  0
 71168  1  0  0  0  0
 77169  1  0  0  0  0
 77170  1  0  0  0  0
 78171  1  0  0  0  0
 78172  1  0  0  0  0
 78173  1  0  0  0  0
 89174  1  0  0  0  0
 89175  1  0  0  0  0
 90176  1  0  0  0  0
 90177  1  0  0  0  0
 90178  1  0  0  0  0
 97179  1  0  0  0  0
103180  1  0  0  0  0
104181  1  0  0  0  0
105182  1  0  0  0  0
106183  1  0  0  0  0
110184  1  0  0  0  0
116185  1  0  0  0  0
116186  1  0  0  0  0
117187  1  0  0  0  0
117188  1  0  0  0  0
117189  1  0  0  0  0
128190  1  0  0  0  0
128191  1  0  0  0  0
129192  1  0  0  0  0
129193  1  0  0  0  0
129194  1  0  0  0  0
136195  1  0  0  0  0
137196  1  0  0  0  0
M  END
