
  xtb     03012205253D
 energy: -321.736141575320 gnorm: 0.000273702228 xtb: 6.4.1 (unknown)
167187  0     0  0            999 V2000
  -10.9222    2.5120   14.5735 C   0  0  0  0  0  0  0  0  0  0  0  0
  -11.4268    1.4986   13.7876 C   0  0  0  0  0  0  0  0  0  0  0  0
  -10.4990    1.0707   12.7797 C   0  0  0  0  0  0  0  0  0  0  0  0
  -10.9051    0.0711   11.8728 C   0  0  0  0  0  0  0  0  0  0  0  0
  -12.1445   -0.4899   11.9909 C   0  0  0  0  0  0  0  0  0  0  0  0
  -13.0402   -0.0904   13.0053 C   0  0  0  0  0  0  0  0  0  0  0  0
  -12.7004    0.8904   13.8862 C   0  0  0  0  0  0  0  0  0  0  0  0
   -9.2877    1.7824   12.8266 C   0  0  0  0  0  0  0  0  0  0  0  0
   -9.3459    2.9596   14.1100 S   0  0  0  0  0  0  0  0  0  0  0  0
   -8.1153    1.6002   12.0578 C   0  0  0  0  0  0  0  0  0  0  0  0
   -7.0269    2.4693   11.8543 C   0  0  0  0  0  0  0  0  0  0  0  0
   -5.9798    1.8895   11.0725 C   0  0  0  0  0  0  0  0  0  0  0  0
   -4.8071    2.6323   10.8379 C   0  0  0  0  0  0  0  0  0  0  0  0
   -4.7045    3.9118   11.3067 C   0  0  0  0  0  0  0  0  0  0  0  0
   -5.7650    4.5079   12.0093 C   0  0  0  0  0  0  0  0  0  0  0  0
   -6.9024    3.8039   12.2872 C   0  0  0  0  0  0  0  0  0  0  0  0
   -6.2584    0.5717   10.6582 C   0  0  0  0  0  0  0  0  0  0  0  0
   -7.8111    0.0842   11.2698 S   0  0  0  0  0  0  0  0  0  0  0  0
   -5.5250   -0.2747    9.8024 C   0  0  0  0  0  0  0  0  0  0  0  0
   -5.6451   -1.6676    9.6060 C   0  0  0  0  0  0  0  0  0  0  0  0
   -4.7988   -2.1632    8.5647 C   0  0  0  0  0  0  0  0  0  0  0  0
   -4.7541   -3.5483    8.3060 C   0  0  0  0  0  0  0  0  0  0  0  0
   -5.5499   -4.3966    9.0218 C   0  0  0  0  0  0  0  0  0  0  0  0
   -6.3946   -3.9097   10.0339 C   0  0  0  0  0  0  0  0  0  0  0  0
   -6.4343   -2.5766   10.3348 C   0  0  0  0  0  0  0  0  0  0  0  0
   -4.0475   -1.1522    7.9494 C   0  0  0  0  0  0  0  0  0  0  0  0
   -4.3445    0.3755    8.7069 S   0  0  0  0  0  0  0  0  0  0  0  0
   -3.1642   -1.2139    6.8437 C   0  0  0  0  0  0  0  0  0  0  0  0
   -3.0971   -2.1475    5.8442 C   0  0  0  0  0  0  0  0  0  0  0  0
   -2.1081   -1.8756    4.8736 C   0  0  0  0  0  0  0  0  0  0  0  0
   -1.8324   -2.6051    3.7026 C   0  0  0  0  0  0  0  0  0  0  0  0
   -2.5250   -3.8515    3.4244 C   0  0  0  0  0  0  0  0  0  0  0  0
   -2.5563   -5.1290    4.6070 S   0  0  0  0  0  0  0  0  0  0  0  0
   -3.4876   -6.1680    3.5812 C   0  0  0  0  0  0  0  0  0  0  0  0
   -3.9291   -7.5098    4.0512 C   0  0  0  0  0  0  0  0  0  0  0  0
   -4.9676   -7.3883    5.1679 C   0  0  0  0  0  0  0  0  0  0  0  0
   -3.7530   -5.5455    2.3993 C   0  0  0  0  0  0  0  0  0  0  0  0
   -4.6623   -6.2501    1.1257 Cl  0  0  0  0  0  0  0  0  0  0  0  0
   -3.2062   -4.2359    2.3038 C   0  0  0  0  0  0  0  0  0  0  0  0
   -3.4754   -3.2307    0.9426 Cl  0  0  0  0  0  0  0  0  0  0  0  0
   -0.8698   -2.0847    2.8475 C   0  0  0  0  0  0  0  0  0  0  0  0
   -0.1695   -0.8828    3.1192 C   0  0  0  0  0  0  0  0  0  0  0  0
   -0.4413   -0.1569    4.2946 C   0  0  0  0  0  0  0  0  0  0  0  0
    0.2307    1.1001    4.5789 C   0  0  0  0  0  0  0  0  0  0  0  0
    0.2223    2.3970    3.4184 S   0  0  0  0  0  0  0  0  0  0  0  0
    1.0985    3.4532    4.4726 C   0  0  0  0  0  0  0  0  0  0  0  0
    1.4947    4.8200    4.0348 C   0  0  0  0  0  0  0  0  0  0  0  0
    2.7753    4.7748    3.1987 C   0  0  0  0  0  0  0  0  0  0  0  0
    1.3850    2.8197    5.6442 C   0  0  0  0  0  0  0  0  0  0  0  0
    0.8882    1.4895    5.7124 C   0  0  0  0  0  0  0  0  0  0  0  0
    1.1756    0.4711    7.0600 Cl  0  0  0  0  0  0  0  0  0  0  0  0
    2.2569    3.5420    6.9336 Cl  0  0  0  0  0  0  0  0  0  0  0  0
   -1.4081   -0.6728    5.1442 C   0  0  0  0  0  0  0  0  0  0  0  0
   -1.9903    0.0738    6.6028 S   0  0  0  0  0  0  0  0  0  0  0  0
    0.7753   -0.5826    2.1107 C   0  0  0  0  0  0  0  0  0  0  0  0
    0.7978   -1.4967    1.0963 C   0  0  0  0  0  0  0  0  0  0  0  0
   -0.3375   -2.8005    1.3553 S   0  0  0  0  0  0  0  0  0  0  0  0
    1.5704   -1.4321   -0.1025 C   0  0  0  0  0  0  0  0  0  0  0  0
    2.6280   -0.6096   -0.3645 C   0  0  0  0  0  0  0  0  0  0  0  0
    3.1061   -0.7092   -1.6928 C   0  0  0  0  0  0  0  0  0  0  0  0
    4.1284    0.0389   -2.3060 C   0  0  0  0  0  0  0  0  0  0  0  0
    4.9255    1.0041   -1.5681 C   0  0  0  0  0  0  0  0  0  0  0  0
    4.2057    2.2516   -0.5906 S   0  0  0  0  0  0  0  0  0  0  0  0
    5.7432    2.9114   -0.1510 C   0  0  0  0  0  0  0  0  0  0  0  0
    5.8630    4.0570    0.7927 C   0  0  0  0  0  0  0  0  0  0  0  0
    6.1785    3.5635    2.2068 C   0  0  0  0  0  0  0  0  0  0  0  0
    6.7466    2.1905   -0.7257 C   0  0  0  0  0  0  0  0  0  0  0  0
    8.4123    2.5410   -0.5145 Cl  0  0  0  0  0  0  0  0  0  0  0  0
    6.2894    1.1132   -1.5303 C   0  0  0  0  0  0  0  0  0  0  0  0
    7.3706    0.0181   -2.2837 Cl  0  0  0  0  0  0  0  0  0  0  0  0
    4.3314   -0.1727   -3.6648 C   0  0  0  0  0  0  0  0  0  0  0  0
    3.6050   -1.1354   -4.4085 C   0  0  0  0  0  0  0  0  0  0  0  0
    2.6325   -1.9349   -3.7816 C   0  0  0  0  0  0  0  0  0  0  0  0
    1.8918   -2.9401   -4.5252 C   0  0  0  0  0  0  0  0  0  0  0  0
    1.1187   -2.5618   -6.0392 S   0  0  0  0  0  0  0  0  0  0  0  0
    0.5215   -4.1749   -6.2375 C   0  0  0  0  0  0  0  0  0  0  0  0
   -0.2651   -4.5619   -7.4411 C   0  0  0  0  0  0  0  0  0  0  0  0
   -1.4483   -3.6255   -7.6783 C   0  0  0  0  0  0  0  0  0  0  0  0
    0.9015   -4.9465   -5.1809 C   0  0  0  0  0  0  0  0  0  0  0  0
    1.6759   -4.2533   -4.2103 C   0  0  0  0  0  0  0  0  0  0  0  0
    2.3385   -5.0429   -2.8422 Cl  0  0  0  0  0  0  0  0  0  0  0  0
    0.5082   -6.6088   -5.0144 Cl  0  0  0  0  0  0  0  0  0  0  0  0
    2.3911   -1.6827   -2.4373 C   0  0  0  0  0  0  0  0  0  0  0  0
    1.1436   -2.4210   -1.4787 S   0  0  0  0  0  0  0  0  0  0  0  0
    3.9717   -1.1303   -5.7732 C   0  0  0  0  0  0  0  0  0  0  0  0
    4.8903   -0.1723   -6.0899 C   0  0  0  0  0  0  0  0  0  0  0  0
    5.4065    0.7362   -4.6905 S   0  0  0  0  0  0  0  0  0  0  0  0
    5.3595    0.1077   -7.4098 C   0  0  0  0  0  0  0  0  0  0  0  0
    4.7540   -0.3126   -8.5576 C   0  0  0  0  0  0  0  0  0  0  0  0
    5.4311    0.0870   -9.7328 C   0  0  0  0  0  0  0  0  0  0  0  0
    5.0959   -0.2214  -11.0612 C   0  0  0  0  0  0  0  0  0  0  0  0
    3.9692   -1.0955  -11.3426 C   0  0  0  0  0  0  0  0  0  0  0  0
    2.6768   -0.6176  -12.4020 S   0  0  0  0  0  0  0  0  0  0  0  0
    1.7973   -2.0795  -12.1170 C   0  0  0  0  0  0  0  0  0  0  0  0
    0.4522   -2.3119  -12.7120 C   0  0  0  0  0  0  0  0  0  0  0  0
   -0.6515   -1.8966  -11.7355 C   0  0  0  0  0  0  0  0  0  0  0  0
    2.4797   -2.8814  -11.2512 C   0  0  0  0  0  0  0  0  0  0  0  0
    1.9188   -4.4160  -10.7285 Cl  0  0  0  0  0  0  0  0  0  0  0  0
    3.7127   -2.3316  -10.8140 C   0  0  0  0  0  0  0  0  0  0  0  0
    4.7879   -3.1884   -9.7829 Cl  0  0  0  0  0  0  0  0  0  0  0  0
    5.8910    0.3356  -12.0535 C   0  0  0  0  0  0  0  0  0  0  0  0
    7.0144    1.1486  -11.7698 C   0  0  0  0  0  0  0  0  0  0  0  0
    7.3624    1.4358  -10.4400 C   0  0  0  0  0  0  0  0  0  0  0  0
    8.5155    2.2615  -10.1151 C   0  0  0  0  0  0  0  0  0  0  0  0
   10.1066    1.8626  -10.6920 S   0  0  0  0  0  0  0  0  0  0  0  0
   10.8255    3.2124   -9.8818 C   0  0  0  0  0  0  0  0  0  0  0  0
   12.2787    3.5080  -10.0134 C   0  0  0  0  0  0  0  0  0  0  0  0
   12.5586    4.3163  -11.2826 C   0  0  0  0  0  0  0  0  0  0  0  0
    9.8735    3.9269   -9.2187 C   0  0  0  0  0  0  0  0  0  0  0  0
    8.5644    3.3875   -9.3417 C   0  0  0  0  0  0  0  0  0  0  0  0
    7.1910    4.1425   -8.6489 Cl  0  0  0  0  0  0  0  0  0  0  0  0
   10.2016    5.3447   -8.3101 Cl  0  0  0  0  0  0  0  0  0  0  0  0
    6.5590    0.8932   -9.4446 C   0  0  0  0  0  0  0  0  0  0  0  0
    6.7887    1.0627   -7.7264 S   0  0  0  0  0  0  0  0  0  0  0  0
    7.6531    1.5909  -12.9656 C   0  0  0  0  0  0  0  0  0  0  0  0
    7.0578    1.1238  -14.0815 C   0  0  0  0  0  0  0  0  0  0  0  0
    5.6835    0.1205  -13.7685 S   0  0  0  0  0  0  0  0  0  0  0  0
  -11.3996    3.0148   15.3904 H   0  0  0  0  0  0  0  0  0  0  0  0
  -10.2465   -0.2401   11.0780 H   0  0  0  0  0  0  0  0  0  0  0  0
  -12.4545   -1.2528   11.2926 H   0  0  0  0  0  0  0  0  0  0  0  0
  -14.0079   -0.5658   13.0658 H   0  0  0  0  0  0  0  0  0  0  0  0
  -13.3803    1.2211   14.6568 H   0  0  0  0  0  0  0  0  0  0  0  0
   -3.9854    2.1887   10.3001 H   0  0  0  0  0  0  0  0  0  0  0  0
   -3.8028    4.4782   11.1296 H   0  0  0  0  0  0  0  0  0  0  0  0
   -5.6719    5.5317   12.3385 H   0  0  0  0  0  0  0  0  0  0  0  0
   -7.7084    4.2722   12.8279 H   0  0  0  0  0  0  0  0  0  0  0  0
   -4.0673   -3.9338    7.5706 H   0  0  0  0  0  0  0  0  0  0  0  0
   -5.5182   -5.4584    8.8281 H   0  0  0  0  0  0  0  0  0  0  0  0
   -6.9998   -4.6049   10.5957 H   0  0  0  0  0  0  0  0  0  0  0  0
   -7.0524   -2.2279   11.1458 H   0  0  0  0  0  0  0  0  0  0  0  0
   -3.7822   -2.9687    5.7612 H   0  0  0  0  0  0  0  0  0  0  0  0
   -3.0665   -8.0685    4.4215 H   0  0  0  0  0  0  0  0  0  0  0  0
   -4.3548   -8.0500    3.2042 H   0  0  0  0  0  0  0  0  0  0  0  0
   -4.5434   -6.8612    6.0196 H   0  0  0  0  0  0  0  0  0  0  0  0
   -5.8376   -6.8385    4.8172 H   0  0  0  0  0  0  0  0  0  0  0  0
   -5.2865   -8.3755    5.4910 H   0  0  0  0  0  0  0  0  0  0  0  0
    0.6896    5.2586    3.4428 H   0  0  0  0  0  0  0  0  0  0  0  0
    1.6560    5.4376    4.9198 H   0  0  0  0  0  0  0  0  0  0  0  0
    3.0506    5.7775    2.8826 H   0  0  0  0  0  0  0  0  0  0  0  0
    3.5893    4.3584    3.7860 H   0  0  0  0  0  0  0  0  0  0  0  0
    2.6273    4.1567    2.3160 H   0  0  0  0  0  0  0  0  0  0  0  0
    1.4008    0.2900    2.1234 H   0  0  0  0  0  0  0  0  0  0  0  0
    3.0471    0.0522    0.3694 H   0  0  0  0  0  0  0  0  0  0  0  0
    4.9296    4.6210    0.7987 H   0  0  0  0  0  0  0  0  0  0  0  0
    6.6674    4.7122    0.4519 H   0  0  0  0  0  0  0  0  0  0  0  0
    5.3960    2.8952    2.5576 H   0  0  0  0  0  0  0  0  0  0  0  0
    6.2521    4.4066    2.8881 H   0  0  0  0  0  0  0  0  0  0  0  0
    7.1227    3.0257    2.2148 H   0  0  0  0  0  0  0  0  0  0  0  0
   -0.6164   -5.5861   -7.3051 H   0  0  0  0  0  0  0  0  0  0  0  0
    0.3892   -4.5419   -8.3176 H   0  0  0  0  0  0  0  0  0  0  0  0
   -2.0015   -3.9388   -8.5598 H   0  0  0  0  0  0  0  0  0  0  0  0
   -2.1201   -3.6392   -6.8236 H   0  0  0  0  0  0  0  0  0  0  0  0
   -1.0996   -2.6059   -7.8276 H   0  0  0  0  0  0  0  0  0  0  0  0
    3.5747   -1.8155   -6.4969 H   0  0  0  0  0  0  0  0  0  0  0  0
    3.8319   -0.8617   -8.5641 H   0  0  0  0  0  0  0  0  0  0  0  0
    0.3613   -1.7385  -13.6352 H   0  0  0  0  0  0  0  0  0  0  0  0
    0.3473   -3.3734  -12.9464 H   0  0  0  0  0  0  0  0  0  0  0  0
   -0.5661   -0.8395  -11.4964 H   0  0  0  0  0  0  0  0  0  0  0  0
   -0.5738   -2.4688  -10.8147 H   0  0  0  0  0  0  0  0  0  0  0  0
   -1.6276   -2.0770  -12.1775 H   0  0  0  0  0  0  0  0  0  0  0  0
   12.6000    4.0770   -9.1392 H   0  0  0  0  0  0  0  0  0  0  0  0
   12.8384    2.5718  -10.0480 H   0  0  0  0  0  0  0  0  0  0  0  0
   13.6208    4.5307  -11.3621 H   0  0  0  0  0  0  0  0  0  0  0  0
   12.0139    5.2567  -11.2576 H   0  0  0  0  0  0  0  0  0  0  0  0
   12.2483    3.7569  -12.1622 H   0  0  0  0  0  0  0  0  0  0  0  0
    8.5153    2.2318  -12.9741 H   0  0  0  0  0  0  0  0  0  0  0  0
    7.3360    1.3051  -15.1012 H   0  0  0  0  0  0  0  0  0  0  0  0
  1  2  2  0  0  0  0
  2  3  1  0  0  0  0
  3  4  1  0  0  0  0
  4  5  2  0  0  0  0
  5  6  1  0  0  0  0
  6  7  2  0  0  0  0
  3  8  2  0  0  0  0
  8  9  1  0  0  0  0
  8 10  1  0  0  0  0
 10 11  2  0  0  0  0
 11 12  1  0  0  0  0
 12 13  1  0  0  0  0
 13 14  2  0  0  0  0
 14 15  1  0  0  0  0
 15 16  2  0  0  0  0
 12 17  2  0  0  0  0
 17 18  1  0  0  0  0
 17 19  1  0  0  0  0
 19 20  2  0  0  0  0
 20 21  1  0  0  0  0
 21 22  1  0  0  0  0
 22 23  2  0  0  0  0
 23 24  1  0  0  0  0
 24 25  2  0  0  0  0
 21 26  2  0  0  0  0
 26 27  1  0  0  0  0
 26 28  1  0  0  0  0
 28 29  2  0  0  0  0
 29 30  1  0  0  0  0
 30 31  2  0  0  0  0
 31 32  1  0  0  0  0
 32 33  1  0  0  0  0
 33 34  1  0  0  0  0
 34 35  1  0  0  0  0
 35 36  1  0  0  0  0
 34 37  2  0  0  0  0
 37 38  1  0  0  0  0
 37 39  1  0  0  0  0
 39 40  1  0  0  0  0
 31 41  1  0  0  0  0
 41 42  2  0  0  0  0
 42 43  1  0  0  0  0
 43 44  1  0  0  0  0
 44 45  1  0  0  0  0
 45 46  1  0  0  0  0
 46 47  1  0  0  0  0
 47 48  1  0  0  0  0
 46 49  2  0  0  0  0
 49 50  1  0  0  0  0
 50 51  1  0  0  0  0
 49 52  1  0  0  0  0
 43 53  2  0  0  0  0
 53 54  1  0  0  0  0
 42 55  1  0  0  0  0
 55 56  2  0  0  0  0
 56 57  1  0  0  0  0
 56 58  1  0  0  0  0
 58 59  2  0  0  0  0
 59 60  1  0  0  0  0
 60 61  2  0  0  0  0
 61 62  1  0  0  0  0
 62 63  1  0  0  0  0
 63 64  1  0  0  0  0
 64 65  1  0  0  0  0
 65 66  1  0  0  0  0
 64 67  2  0  0  0  0
 67 68  1  0  0  0  0
 67 69  1  0  0  0  0
 69 70  1  0  0  0  0
 61 71  1  0  0  0  0
 71 72  2  0  0  0  0
 72 73  1  0  0  0  0
 73 74  1  0  0  0  0
 74 75  1  0  0  0  0
 75 76  1  0  0  0  0
 76 77  1  0  0  0  0
 77 78  1  0  0  0  0
 76 79  2  0  0  0  0
 79 80  1  0  0  0  0
 80 81  1  0  0  0  0
 79 82  1  0  0  0  0
 73 83  2  0  0  0  0
 83 84  1  0  0  0  0
 72 85  1  0  0  0  0
 85 86  2  0  0  0  0
 86 87  1  0  0  0  0
 86 88  1  0  0  0  0
 88 89  2  0  0  0  0
 89 90  1  0  0  0  0
 90 91  2  0  0  0  0
 91 92  1  0  0  0  0
 92 93  1  0  0  0  0
 93 94  1  0  0  0  0
 94 95  1  0  0  0  0
 95 96  1  0  0  0  0
 94 97  2  0  0  0  0
 97 98  1  0  0  0  0
 97 99  1  0  0  0  0
 99100  1  0  0  0  0
 91101  1  0  0  0  0
101102  2  0  0  0  0
102103  1  0  0  0  0
103104  1  0  0  0  0
104105  1  0  0  0  0
105106  1  0  0  0  0
106107  1  0  0  0  0
107108  1  0  0  0  0
106109  2  0  0  0  0
109110  1  0  0  0  0
110111  1  0  0  0  0
109112  1  0  0  0  0
103113  2  0  0  0  0
113114  1  0  0  0  0
102115  1  0  0  0  0
115116  2  0  0  0  0
116117  1  0  0  0  0
  9  1  1  0  0  0  0
 18 10  1  0  0  0  0
 27 19  1  0  0  0  0
 54 28  1  0  0  0  0
 84 58  1  0  0  0  0
114 88  1  0  0  0  0
  7  2  1  0  0  0  0
 16 11  1  0  0  0  0
 25 20  1  0  0  0  0
 53 30  1  0  0  0  0
 83 60  1  0  0  0  0
113 90  1  0  0  0  0
 39 32  2  0  0  0  0
 57 41  1  0  0  0  0
 69 62  2  0  0  0  0
 87 71  1  0  0  0  0
 99 92  2  0  0  0  0
117101  1  0  0  0  0
 50 44  2  0  0  0  0
 80 74  2  0  0  0  0
110104  2  0  0  0  0
  1118  1  0  0  0  0
  4119  1  0  0  0  0
  5120  1  0  0  0  0
  6121  1  0  0  0  0
  7122  1  0  0  0  0
 13123  1  0  0  0  0
 14124  1  0  0  0  0
 15125  1  0  0  0  0
 16126  1  0  0  0  0
 22127  1  0  0  0  0
 23128  1  0  0  0  0
 24129  1  0  0  0  0
 25130  1  0  0  0  0
 29131  1  0  0  0  0
 35132  1  0  0  0  0
 35133  1  0  0  0  0
 36134  1  0  0  0  0
 36135  1  0  0  0  0
 36136  1  0  0  0  0
 47137  1  0  0  0  0
 47138  1  0  0  0  0
 48139  1  0  0  0  0
 48140  1  0  0  0  0
 48141  1  0  0  0  0
 55142  1  0  0  0  0
 59143  1  0  0  0  0
 65144  1  0  0  0  0
 65145  1  0  0  0  0
 66146  1  0  0  0  0
 66147  1  0  0  0  0
 66148  1  0  0  0  0
 77149  1  0  0  0  0
 77150  1  0  0  0  0
 78151  1  0  0  0  0
 78152  1  0  0  0  0
 78153  1  0  0  0  0
 85154  1  0  0  0  0
 89155  1  0  0  0  0
 95156  1  0  0  0  0
 95157  1  0  0  0  0
 96158  1  0  0  0  0
 96159  1  0  0  0  0
 96160  1  0  0  0  0
107161  1  0  0  0  0
107162  1  0  0  0  0
108163  1  0  0  0  0
108164  1  0  0  0  0
108165  1  0  0  0  0
115166  1  0  0  0  0
116167  1  0  0  0  0
M  END
