234

C         -7.89560       -0.96090       12.38690
C         -8.44720       -0.48300       11.25370
C         -7.58060       -0.58980       10.12480
C         -7.84120       -0.22710        8.79520
C         -9.08390        0.44600        8.39830
C         -9.52300        1.58950        9.06370
C        -10.65380        2.25540        8.64210
C        -11.39890        1.80240        7.55530
S        -12.84310        2.72350        7.11320
C        -12.79510        2.74950        5.28240
C        -11.50090        3.33620        4.75560
C        -10.97150        0.63690        6.92690
F        -11.67180        0.10830        5.89960
C         -9.82670       -0.02500        7.32110
C         -6.84840       -0.50690        7.86720
C         -5.61200       -1.10150        8.21700
C         -5.34650       -1.45910        9.54870
C         -4.06680       -2.07890        9.91370
C         -3.57170       -3.17230        9.20270
C         -2.34880       -3.72410        9.51990
C         -1.56960       -3.20580       10.55170
S          0.01840       -3.93880       10.83090
C          0.12150       -4.06480       12.65360
C         -1.02520       -4.87060       13.22920
C         -2.07400       -2.11450       11.25200
C         -3.30510       -1.56440       10.95740
F         -1.35810       -1.54050       12.24350
C         -6.34440       -1.18750       10.47300
S         -6.29090       -1.57320       12.17410
C         -4.74690       -1.21480        7.10110
C         -5.28920       -0.75490        5.93730
S         -6.90800       -0.13020        6.16380
C         -4.66410       -0.78090        4.65340
C         -3.49010       -1.40410        4.34860
C         -3.11310       -1.27430        2.99070
C         -1.94540       -1.77030        2.38880
C         -0.99580       -2.54000        3.20730
C          0.28420       -2.06560        3.46620
C          1.13000       -2.74200        4.32500
C          0.72260       -3.91530        4.94770
S          1.72300       -4.85930        6.05520
C          2.75860       -3.59090        6.86320
C          1.92910       -2.60560        7.66220
C         -0.55100       -4.39710        4.64890
F         -0.97740       -5.54120        5.22090
C         -1.40800       -3.72690        3.80540
C         -1.76470       -1.47800        1.04970
C         -2.69940       -0.71120        0.30720
C         -3.85690       -0.19330        0.91400
C         -4.79020        0.65230        0.16090
C         -6.16110        0.41720        0.18630
C         -7.03700        1.20160       -0.54000
C         -6.57180        2.25300       -1.32060
S         -7.56530        3.33400       -2.29500
C         -9.20440        2.53300       -2.33270
C         -9.21760        1.28810       -3.19920
C         -5.19680        2.49480       -1.31620
C         -4.31480        1.72140       -0.59860
F         -4.71270        3.52270       -2.04220
C         -4.04660       -0.50890        2.25050
S         -5.37300        0.00920        3.26010
C         -2.31150       -0.59250       -1.04680
C         -1.13410       -1.21420       -1.34550
S         -0.43130       -2.00460        0.05040
C         -0.49290       -1.14360       -2.62070
C          0.56370       -1.82030       -3.15670
C          0.95520       -1.34060       -4.44010
C          2.03000       -1.75740       -5.25910
C          2.66470       -3.06300       -5.07270
C          1.86250       -4.16940       -4.77150
C          2.39420       -5.43620       -4.71500
C          3.75000       -5.67560       -4.96150
S          4.25710       -7.36030       -4.91210
C          6.06940       -7.31950       -4.62420
C          6.51190       -8.69050       -4.15240
C          4.53590       -4.56830       -5.26830
F          5.85170       -4.70020       -5.55590
C          4.01570       -3.29030       -5.31300
C          2.36790       -0.89540       -6.30240
C          1.55610        0.20170       -6.67560
C          0.39310        0.51350       -5.96740
C         -0.46360        1.65240       -6.32520
C         -1.11160        1.72200       -7.55520
C         -1.97320        2.76440       -7.83000
C         -2.18950        3.78600       -6.90860
S         -3.33090        5.07220       -7.32750
C         -4.32570        5.23220       -5.79580
C         -5.01170        3.93410       -5.42440
C         -1.46880        3.74460       -5.71860
C         -0.64130        2.68520       -5.41140
F         -1.54860        4.75460       -4.82790
C          0.16470       -0.23170       -4.82770
S         -1.09920        0.10730       -3.69160
C          2.16900        1.03880       -7.63530
C          3.44580        0.67930       -7.94660
S          3.84780       -0.88240       -7.24530
C          4.41420        1.70470       -8.28830
C          4.30110        2.82270       -7.51630
C          5.11210        3.95390       -7.57310
C          6.11330        4.12420       -8.62670
C          6.42200        3.12170       -9.48310
S          5.67380        1.56440       -9.49350
C          6.59450        5.44960       -8.43350
C          5.95540        6.04020       -7.33140
C          6.41590        7.35170       -7.08710
C          7.36880        7.72140       -7.98230
S          7.75060        6.50330       -9.15090
C          5.04740        5.08820       -6.76440
C          4.20690        5.07270       -5.58940
C          4.17050        3.91260       -4.86110
C          3.19900        3.54260       -3.92490
C          2.14280        4.49450       -3.56340
C          2.06170        5.75040       -4.05970
S          3.11450        6.40260       -5.25460
C          1.32160        3.79750       -2.63420
C          1.81080        2.50010       -2.44580
C          1.01280        1.77470       -1.53250
C         -0.03100        2.51530       -1.07400
S         -0.10020        4.11640       -1.71900
C          2.99550        2.32740       -3.25580
C          3.78590        1.14110       -3.33030
C          3.62010       -0.04370       -2.66250
C          4.65020       -0.99620       -2.87670
C          4.82250       -2.27120       -2.31300
C          3.86490       -2.87660       -1.37940
C          3.44270       -2.22740       -0.22100
C          2.61270       -2.86630        0.67550
C          2.14510       -4.15920        0.44320
S          1.05540       -4.87060        1.63480
C          1.52640       -6.64840        1.63860
C          1.15970       -7.24880        2.98080
C          2.53660       -4.77630       -0.73990
F          2.07690       -6.00360       -1.06810
C          3.39930       -4.16450       -1.62440
C          5.97870       -2.95960       -2.66260
C          6.96670       -2.44810       -3.53540
C          6.77560       -1.19760       -4.13150
C          7.74750       -0.58640       -5.05310
C          7.37780       -0.27730       -6.35880
C          8.25870        0.36700       -7.20220
C          9.52200        0.74030       -6.76440
S         10.59700        1.61740       -7.87650
C         10.82130        3.17150       -6.93420
C          9.51820        3.93630       -6.81050
C          9.89260        0.39620       -5.46950
C          9.02590       -0.25860       -4.61650
F         11.11980        0.71360       -5.00630
C          5.62180       -0.51620       -3.78740
S          5.22900        1.08020       -4.34380
C          8.06640       -3.34260       -3.68700
C          7.93110       -4.46370       -2.95320
S          6.45710       -4.51920       -2.03970
H         -8.33070       -1.00020       13.36640
H         -9.44280       -0.08200       11.19710
H         -8.95010        1.97760        9.89210
H        -10.98010        3.15200        9.14580
H        -13.64690        3.37740        5.02120
H        -12.96880        1.74270        4.90890
H        -11.54980        3.41470        3.67130
H        -10.65230        2.70580        5.01550
H        -11.33420        4.32820        5.17060
H         -9.54210       -0.92370        6.79660
H         -4.16460       -3.60780        8.41290
H         -1.97140       -4.57080        8.96750
H          0.16940       -3.06300       13.07480
H          1.07620       -4.56510       12.81600
H         -1.06970       -5.85520       12.76800
H         -0.88460       -4.99240       14.30130
H         -1.97620       -4.36730       13.06260
H         -3.64010       -0.71030       11.52480
H         -3.74720       -1.60020        7.17100
H         -2.90200       -1.94290        5.06790
H          0.61010       -1.14360        3.00750
H          2.11820       -2.35050        4.50890
H          3.40760       -4.17340        7.51650
H          3.37240       -3.10210        6.10750
H          1.25420       -2.04990        7.01330
H          1.33840       -3.12940        8.41080
H          2.58270       -1.89850        8.16950
H         -2.38930       -4.13250        3.61370
H         -6.55170       -0.40510        0.76570
H         -8.09090        0.98260       -0.48800
H         -9.85400        3.30230       -2.75020
H         -9.51750        2.33440       -1.30850
H        -10.21890        0.86230       -3.21950
H         -8.52800        0.53770       -2.81830
H         -8.92430        1.53670       -4.21640
H         -3.26580        1.96980       -0.62310
H         -2.89700       -0.08170       -1.78990
H          1.07860       -2.60550       -2.62990
H          0.80430       -4.03370       -4.61080
H          1.76530       -6.28130       -4.48160
H          6.25860       -6.56480       -3.86340
H          6.56230       -7.04290       -5.55490
H          7.58490       -8.68730       -3.97340
H          6.00320       -8.95800       -3.22900
H          6.28630       -9.44550       -4.90230
H          4.69480       -2.48410       -5.53530
H         -0.96470        0.93590       -8.28060
H         -2.50490        2.80180       -8.76810
H         -3.68660        5.59390       -4.99400
H         -5.05200        6.00440       -6.04810
H         -5.63370        4.09330       -4.54630
H         -5.63660        3.58150       -6.24260
H         -4.28010        3.16330       -5.18770
H         -0.11540        2.68770       -4.47030
H          1.70950        1.94570       -7.98690
H          3.51440        2.82500       -6.77700
H          7.18880        3.21140      -10.23670
H          6.05910        7.98680       -6.29660
H          7.89020        8.65700       -8.03810
H          4.96450        3.21680       -5.07680
H          1.29290        6.44160       -3.75160
H          1.18030        0.76270       -1.21250
H         -0.78080        2.20920       -0.37020
H          2.78910       -0.24190       -2.01390
H          3.80410       -1.23350       -0.00380
H          2.30840       -2.37710        1.58680
H          2.60050       -6.69340        1.46460
H          0.99900       -7.14540        0.82580
H          1.67780       -6.73760        3.78910
H          0.08970       -7.16980        3.15770
H          1.43700       -8.30050        2.99830
H          3.67700       -4.69410       -2.52050
H          6.39570       -0.54540       -6.71510
H          7.97640        0.59960       -8.21670
H         11.24620        2.92570       -5.96290
H         11.55470        3.73220       -7.51240
H          9.68530        4.87260       -6.28130
H          8.77640        3.35710       -6.26180
H          9.11780        4.16080       -7.79650
H          9.34810       -0.49170       -3.61300
H          8.90530       -3.13890       -4.32730
H          8.60570       -5.29450       -2.88290
