
  xtb     03042219483D
 energy: -410.272200364758 gnorm: 0.000641909647 xtb: 6.4.1 (unknown)
234259  0     0  0            999 V2000
   -7.8956   -0.9609   12.3869 C   0  0  0  0  0  0  0  0  0  0  0  0
   -8.4472   -0.4830   11.2537 C   0  0  0  0  0  0  0  0  0  0  0  0
   -7.5806   -0.5898   10.1248 C   0  0  0  0  0  0  0  0  0  0  0  0
   -7.8412   -0.2271    8.7952 C   0  0  0  0  0  0  0  0  0  0  0  0
   -9.0839    0.4460    8.3983 C   0  0  0  0  0  0  0  0  0  0  0  0
   -9.5230    1.5895    9.0637 C   0  0  0  0  0  0  0  0  0  0  0  0
  -10.6538    2.2554    8.6421 C   0  0  0  0  0  0  0  0  0  0  0  0
  -11.3989    1.8024    7.5553 C   0  0  0  0  0  0  0  0  0  0  0  0
  -12.8431    2.7235    7.1132 S   0  0  0  0  0  0  0  0  0  0  0  0
  -12.7951    2.7495    5.2824 C   0  0  0  0  0  0  0  0  0  0  0  0
  -11.5009    3.3362    4.7556 C   0  0  0  0  0  0  0  0  0  0  0  0
  -10.9715    0.6369    6.9269 C   0  0  0  0  0  0  0  0  0  0  0  0
  -11.6718    0.1083    5.8996 F   0  0  0  0  0  0  0  0  0  0  0  0
   -9.8267   -0.0250    7.3211 C   0  0  0  0  0  0  0  0  0  0  0  0
   -6.8484   -0.5069    7.8672 C   0  0  0  0  0  0  0  0  0  0  0  0
   -5.6120   -1.1015    8.2170 C   0  0  0  0  0  0  0  0  0  0  0  0
   -5.3465   -1.4591    9.5487 C   0  0  0  0  0  0  0  0  0  0  0  0
   -4.0668   -2.0789    9.9137 C   0  0  0  0  0  0  0  0  0  0  0  0
   -3.5717   -3.1723    9.2027 C   0  0  0  0  0  0  0  0  0  0  0  0
   -2.3488   -3.7241    9.5199 C   0  0  0  0  0  0  0  0  0  0  0  0
   -1.5696   -3.2058   10.5517 C   0  0  0  0  0  0  0  0  0  0  0  0
    0.0184   -3.9388   10.8309 S   0  0  0  0  0  0  0  0  0  0  0  0
    0.1215   -4.0648   12.6536 C   0  0  0  0  0  0  0  0  0  0  0  0
   -1.0252   -4.8706   13.2292 C   0  0  0  0  0  0  0  0  0  0  0  0
   -2.0740   -2.1145   11.2520 C   0  0  0  0  0  0  0  0  0  0  0  0
   -3.3051   -1.5644   10.9574 C   0  0  0  0  0  0  0  0  0  0  0  0
   -1.3581   -1.5405   12.2435 F   0  0  0  0  0  0  0  0  0  0  0  0
   -6.3444   -1.1875   10.4730 C   0  0  0  0  0  0  0  0  0  0  0  0
   -6.2909   -1.5732   12.1741 S   0  0  0  0  0  0  0  0  0  0  0  0
   -4.7469   -1.2148    7.1011 C   0  0  0  0  0  0  0  0  0  0  0  0
   -5.2892   -0.7549    5.9373 C   0  0  0  0  0  0  0  0  0  0  0  0
   -6.9080   -0.1302    6.1638 S   0  0  0  0  0  0  0  0  0  0  0  0
   -4.6641   -0.7809    4.6534 C   0  0  0  0  0  0  0  0  0  0  0  0
   -3.4901   -1.4041    4.3486 C   0  0  0  0  0  0  0  0  0  0  0  0
   -3.1131   -1.2743    2.9907 C   0  0  0  0  0  0  0  0  0  0  0  0
   -1.9454   -1.7703    2.3888 C   0  0  0  0  0  0  0  0  0  0  0  0
   -0.9958   -2.5400    3.2073 C   0  0  0  0  0  0  0  0  0  0  0  0
    0.2842   -2.0656    3.4662 C   0  0  0  0  0  0  0  0  0  0  0  0
    1.1300   -2.7420    4.3250 C   0  0  0  0  0  0  0  0  0  0  0  0
    0.7226   -3.9153    4.9477 C   0  0  0  0  0  0  0  0  0  0  0  0
    1.7230   -4.8593    6.0552 S   0  0  0  0  0  0  0  0  0  0  0  0
    2.7586   -3.5909    6.8632 C   0  0  0  0  0  0  0  0  0  0  0  0
    1.9291   -2.6056    7.6622 C   0  0  0  0  0  0  0  0  0  0  0  0
   -0.5510   -4.3971    4.6489 C   0  0  0  0  0  0  0  0  0  0  0  0
   -0.9774   -5.5412    5.2209 F   0  0  0  0  0  0  0  0  0  0  0  0
   -1.4080   -3.7269    3.8054 C   0  0  0  0  0  0  0  0  0  0  0  0
   -1.7647   -1.4780    1.0497 C   0  0  0  0  0  0  0  0  0  0  0  0
   -2.6994   -0.7112    0.3072 C   0  0  0  0  0  0  0  0  0  0  0  0
   -3.8569   -0.1933    0.9140 C   0  0  0  0  0  0  0  0  0  0  0  0
   -4.7902    0.6523    0.1609 C   0  0  0  0  0  0  0  0  0  0  0  0
   -6.1611    0.4172    0.1863 C   0  0  0  0  0  0  0  0  0  0  0  0
   -7.0370    1.2016   -0.5400 C   0  0  0  0  0  0  0  0  0  0  0  0
   -6.5718    2.2530   -1.3206 C   0  0  0  0  0  0  0  0  0  0  0  0
   -7.5653    3.3340   -2.2950 S   0  0  0  0  0  0  0  0  0  0  0  0
   -9.2044    2.5330   -2.3327 C   0  0  0  0  0  0  0  0  0  0  0  0
   -9.2176    1.2881   -3.1992 C   0  0  0  0  0  0  0  0  0  0  0  0
   -5.1968    2.4948   -1.3162 C   0  0  0  0  0  0  0  0  0  0  0  0
   -4.3148    1.7214   -0.5986 C   0  0  0  0  0  0  0  0  0  0  0  0
   -4.7127    3.5227   -2.0422 F   0  0  0  0  0  0  0  0  0  0  0  0
   -4.0466   -0.5089    2.2505 C   0  0  0  0  0  0  0  0  0  0  0  0
   -5.3730    0.0092    3.2601 S   0  0  0  0  0  0  0  0  0  0  0  0
   -2.3115   -0.5925   -1.0468 C   0  0  0  0  0  0  0  0  0  0  0  0
   -1.1341   -1.2142   -1.3455 C   0  0  0  0  0  0  0  0  0  0  0  0
   -0.4313   -2.0046    0.0504 S   0  0  0  0  0  0  0  0  0  0  0  0
   -0.4929   -1.1436   -2.6207 C   0  0  0  0  0  0  0  0  0  0  0  0
    0.5637   -1.8203   -3.1567 C   0  0  0  0  0  0  0  0  0  0  0  0
    0.9552   -1.3406   -4.4401 C   0  0  0  0  0  0  0  0  0  0  0  0
    2.0300   -1.7574   -5.2591 C   0  0  0  0  0  0  0  0  0  0  0  0
    2.6647   -3.0630   -5.0727 C   0  0  0  0  0  0  0  0  0  0  0  0
    1.8625   -4.1694   -4.7715 C   0  0  0  0  0  0  0  0  0  0  0  0
    2.3942   -5.4362   -4.7150 C   0  0  0  0  0  0  0  0  0  0  0  0
    3.7500   -5.6756   -4.9615 C   0  0  0  0  0  0  0  0  0  0  0  0
    4.2571   -7.3603   -4.9121 S   0  0  0  0  0  0  0  0  0  0  0  0
    6.0694   -7.3195   -4.6242 C   0  0  0  0  0  0  0  0  0  0  0  0
    6.5119   -8.6905   -4.1524 C   0  0  0  0  0  0  0  0  0  0  0  0
    4.5359   -4.5683   -5.2683 C   0  0  0  0  0  0  0  0  0  0  0  0
    5.8517   -4.7002   -5.5559 F   0  0  0  0  0  0  0  0  0  0  0  0
    4.0157   -3.2903   -5.3130 C   0  0  0  0  0  0  0  0  0  0  0  0
    2.3679   -0.8954   -6.3024 C   0  0  0  0  0  0  0  0  0  0  0  0
    1.5561    0.2017   -6.6756 C   0  0  0  0  0  0  0  0  0  0  0  0
    0.3931    0.5135   -5.9674 C   0  0  0  0  0  0  0  0  0  0  0  0
   -0.4636    1.6524   -6.3252 C   0  0  0  0  0  0  0  0  0  0  0  0
   -1.1116    1.7220   -7.5552 C   0  0  0  0  0  0  0  0  0  0  0  0
   -1.9732    2.7644   -7.8300 C   0  0  0  0  0  0  0  0  0  0  0  0
   -2.1895    3.7860   -6.9086 C   0  0  0  0  0  0  0  0  0  0  0  0
   -3.3309    5.0722   -7.3275 S   0  0  0  0  0  0  0  0  0  0  0  0
   -4.3257    5.2322   -5.7958 C   0  0  0  0  0  0  0  0  0  0  0  0
   -5.0117    3.9341   -5.4244 C   0  0  0  0  0  0  0  0  0  0  0  0
   -1.4688    3.7446   -5.7186 C   0  0  0  0  0  0  0  0  0  0  0  0
   -0.6413    2.6852   -5.4114 C   0  0  0  0  0  0  0  0  0  0  0  0
   -1.5486    4.7546   -4.8279 F   0  0  0  0  0  0  0  0  0  0  0  0
    0.1647   -0.2317   -4.8277 C   0  0  0  0  0  0  0  0  0  0  0  0
   -1.0992    0.1073   -3.6916 S   0  0  0  0  0  0  0  0  0  0  0  0
    2.1690    1.0388   -7.6353 C   0  0  0  0  0  0  0  0  0  0  0  0
    3.4458    0.6793   -7.9466 C   0  0  0  0  0  0  0  0  0  0  0  0
    3.8478   -0.8824   -7.2453 S   0  0  0  0  0  0  0  0  0  0  0  0
    4.4142    1.7047   -8.2883 C   0  0  0  0  0  0  0  0  0  0  0  0
    4.3011    2.8227   -7.5163 C   0  0  0  0  0  0  0  0  0  0  0  0
    5.1121    3.9539   -7.5731 C   0  0  0  0  0  0  0  0  0  0  0  0
    6.1133    4.1242   -8.6267 C   0  0  0  0  0  0  0  0  0  0  0  0
    6.4220    3.1217   -9.4831 C   0  0  0  0  0  0  0  0  0  0  0  0
    5.6738    1.5644   -9.4935 S   0  0  0  0  0  0  0  0  0  0  0  0
    6.5945    5.4496   -8.4335 C   0  0  0  0  0  0  0  0  0  0  0  0
    5.9554    6.0402   -7.3314 C   0  0  0  0  0  0  0  0  0  0  0  0
    6.4159    7.3517   -7.0871 C   0  0  0  0  0  0  0  0  0  0  0  0
    7.3688    7.7214   -7.9823 C   0  0  0  0  0  0  0  0  0  0  0  0
    7.7506    6.5033   -9.1509 S   0  0  0  0  0  0  0  0  0  0  0  0
    5.0474    5.0882   -6.7644 C   0  0  0  0  0  0  0  0  0  0  0  0
    4.2069    5.0727   -5.5894 C   0  0  0  0  0  0  0  0  0  0  0  0
    4.1705    3.9126   -4.8611 C   0  0  0  0  0  0  0  0  0  0  0  0
    3.1990    3.5426   -3.9249 C   0  0  0  0  0  0  0  0  0  0  0  0
    2.1428    4.4945   -3.5634 C   0  0  0  0  0  0  0  0  0  0  0  0
    2.0617    5.7504   -4.0597 C   0  0  0  0  0  0  0  0  0  0  0  0
    3.1145    6.4026   -5.2546 S   0  0  0  0  0  0  0  0  0  0  0  0
    1.3216    3.7975   -2.6342 C   0  0  0  0  0  0  0  0  0  0  0  0
    1.8108    2.5001   -2.4458 C   0  0  0  0  0  0  0  0  0  0  0  0
    1.0128    1.7747   -1.5325 C   0  0  0  0  0  0  0  0  0  0  0  0
   -0.0310    2.5153   -1.0740 C   0  0  0  0  0  0  0  0  0  0  0  0
   -0.1002    4.1164   -1.7190 S   0  0  0  0  0  0  0  0  0  0  0  0
    2.9955    2.3274   -3.2558 C   0  0  0  0  0  0  0  0  0  0  0  0
    3.7859    1.1411   -3.3303 C   0  0  0  0  0  0  0  0  0  0  0  0
    3.6201   -0.0437   -2.6625 C   0  0  0  0  0  0  0  0  0  0  0  0
    4.6502   -0.9962   -2.8767 C   0  0  0  0  0  0  0  0  0  0  0  0
    4.8225   -2.2712   -2.3130 C   0  0  0  0  0  0  0  0  0  0  0  0
    3.8649   -2.8766   -1.3794 C   0  0  0  0  0  0  0  0  0  0  0  0
    3.4427   -2.2274   -0.2210 C   0  0  0  0  0  0  0  0  0  0  0  0
    2.6127   -2.8663    0.6755 C   0  0  0  0  0  0  0  0  0  0  0  0
    2.1451   -4.1592    0.4432 C   0  0  0  0  0  0  0  0  0  0  0  0
    1.0554   -4.8706    1.6348 S   0  0  0  0  0  0  0  0  0  0  0  0
    1.5264   -6.6484    1.6386 C   0  0  0  0  0  0  0  0  0  0  0  0
    1.1597   -7.2488    2.9808 C   0  0  0  0  0  0  0  0  0  0  0  0
    2.5366   -4.7763   -0.7399 C   0  0  0  0  0  0  0  0  0  0  0  0
    2.0769   -6.0036   -1.0681 F   0  0  0  0  0  0  0  0  0  0  0  0
    3.3993   -4.1645   -1.6244 C   0  0  0  0  0  0  0  0  0  0  0  0
    5.9787   -2.9596   -2.6626 C   0  0  0  0  0  0  0  0  0  0  0  0
    6.9667   -2.4481   -3.5354 C   0  0  0  0  0  0  0  0  0  0  0  0
    6.7756   -1.1976   -4.1315 C   0  0  0  0  0  0  0  0  0  0  0  0
    7.7475   -0.5864   -5.0531 C   0  0  0  0  0  0  0  0  0  0  0  0
    7.3778   -0.2773   -6.3588 C   0  0  0  0  0  0  0  0  0  0  0  0
    8.2587    0.3670   -7.2022 C   0  0  0  0  0  0  0  0  0  0  0  0
    9.5220    0.7403   -6.7644 C   0  0  0  0  0  0  0  0  0  0  0  0
   10.5970    1.6174   -7.8765 S   0  0  0  0  0  0  0  0  0  0  0  0
   10.8213    3.1715   -6.9342 C   0  0  0  0  0  0  0  0  0  0  0  0
    9.5182    3.9363   -6.8105 C   0  0  0  0  0  0  0  0  0  0  0  0
    9.8926    0.3962   -5.4695 C   0  0  0  0  0  0  0  0  0  0  0  0
    9.0259   -0.2586   -4.6165 C   0  0  0  0  0  0  0  0  0  0  0  0
   11.1198    0.7136   -5.0063 F   0  0  0  0  0  0  0  0  0  0  0  0
    5.6218   -0.5162   -3.7874 C   0  0  0  0  0  0  0  0  0  0  0  0
    5.2290    1.0802   -4.3438 S   0  0  0  0  0  0  0  0  0  0  0  0
    8.0664   -3.3426   -3.6870 C   0  0  0  0  0  0  0  0  0  0  0  0
    7.9311   -4.4637   -2.9532 C   0  0  0  0  0  0  0  0  0  0  0  0
    6.4571   -4.5192   -2.0397 S   0  0  0  0  0  0  0  0  0  0  0  0
   -8.3307   -1.0002   13.3664 H   0  0  0  0  0  0  0  0  0  0  0  0
   -9.4428   -0.0820   11.1971 H   0  0  0  0  0  0  0  0  0  0  0  0
   -8.9501    1.9776    9.8921 H   0  0  0  0  0  0  0  0  0  0  0  0
  -10.9801    3.1520    9.1458 H   0  0  0  0  0  0  0  0  0  0  0  0
  -13.6469    3.3774    5.0212 H   0  0  0  0  0  0  0  0  0  0  0  0
  -12.9688    1.7427    4.9089 H   0  0  0  0  0  0  0  0  0  0  0  0
  -11.5498    3.4147    3.6713 H   0  0  0  0  0  0  0  0  0  0  0  0
  -10.6523    2.7058    5.0155 H   0  0  0  0  0  0  0  0  0  0  0  0
  -11.3342    4.3282    5.1706 H   0  0  0  0  0  0  0  0  0  0  0  0
   -9.5421   -0.9237    6.7966 H   0  0  0  0  0  0  0  0  0  0  0  0
   -4.1646   -3.6078    8.4129 H   0  0  0  0  0  0  0  0  0  0  0  0
   -1.9714   -4.5708    8.9675 H   0  0  0  0  0  0  0  0  0  0  0  0
    0.1694   -3.0630   13.0748 H   0  0  0  0  0  0  0  0  0  0  0  0
    1.0762   -4.5651   12.8160 H   0  0  0  0  0  0  0  0  0  0  0  0
   -1.0697   -5.8552   12.7680 H   0  0  0  0  0  0  0  0  0  0  0  0
   -0.8846   -4.9924   14.3013 H   0  0  0  0  0  0  0  0  0  0  0  0
   -1.9762   -4.3673   13.0626 H   0  0  0  0  0  0  0  0  0  0  0  0
   -3.6401   -0.7103   11.5248 H   0  0  0  0  0  0  0  0  0  0  0  0
   -3.7472   -1.6002    7.1710 H   0  0  0  0  0  0  0  0  0  0  0  0
   -2.9020   -1.9429    5.0679 H   0  0  0  0  0  0  0  0  0  0  0  0
    0.6101   -1.1436    3.0075 H   0  0  0  0  0  0  0  0  0  0  0  0
    2.1182   -2.3505    4.5089 H   0  0  0  0  0  0  0  0  0  0  0  0
    3.4076   -4.1734    7.5165 H   0  0  0  0  0  0  0  0  0  0  0  0
    3.3724   -3.1021    6.1075 H   0  0  0  0  0  0  0  0  0  0  0  0
    1.2542   -2.0499    7.0133 H   0  0  0  0  0  0  0  0  0  0  0  0
    1.3384   -3.1294    8.4108 H   0  0  0  0  0  0  0  0  0  0  0  0
    2.5827   -1.8985    8.1695 H   0  0  0  0  0  0  0  0  0  0  0  0
   -2.3893   -4.1325    3.6137 H   0  0  0  0  0  0  0  0  0  0  0  0
   -6.5517   -0.4051    0.7657 H   0  0  0  0  0  0  0  0  0  0  0  0
   -8.0909    0.9826   -0.4880 H   0  0  0  0  0  0  0  0  0  0  0  0
   -9.8540    3.3023   -2.7502 H   0  0  0  0  0  0  0  0  0  0  0  0
   -9.5175    2.3344   -1.3085 H   0  0  0  0  0  0  0  0  0  0  0  0
  -10.2189    0.8623   -3.2195 H   0  0  0  0  0  0  0  0  0  0  0  0
   -8.5280    0.5377   -2.8183 H   0  0  0  0  0  0  0  0  0  0  0  0
   -8.9243    1.5367   -4.2164 H   0  0  0  0  0  0  0  0  0  0  0  0
   -3.2658    1.9698   -0.6231 H   0  0  0  0  0  0  0  0  0  0  0  0
   -2.8970   -0.0817   -1.7899 H   0  0  0  0  0  0  0  0  0  0  0  0
    1.0786   -2.6055   -2.6299 H   0  0  0  0  0  0  0  0  0  0  0  0
    0.8043   -4.0337   -4.6108 H   0  0  0  0  0  0  0  0  0  0  0  0
    1.7653   -6.2813   -4.4816 H   0  0  0  0  0  0  0  0  0  0  0  0
    6.2586   -6.5648   -3.8634 H   0  0  0  0  0  0  0  0  0  0  0  0
    6.5623   -7.0429   -5.5549 H   0  0  0  0  0  0  0  0  0  0  0  0
    7.5849   -8.6873   -3.9734 H   0  0  0  0  0  0  0  0  0  0  0  0
    6.0032   -8.9580   -3.2290 H   0  0  0  0  0  0  0  0  0  0  0  0
    6.2863   -9.4455   -4.9023 H   0  0  0  0  0  0  0  0  0  0  0  0
    4.6948   -2.4841   -5.5353 H   0  0  0  0  0  0  0  0  0  0  0  0
   -0.9647    0.9359   -8.2806 H   0  0  0  0  0  0  0  0  0  0  0  0
   -2.5049    2.8018   -8.7681 H   0  0  0  0  0  0  0  0  0  0  0  0
   -3.6866    5.5939   -4.9940 H   0  0  0  0  0  0  0  0  0  0  0  0
   -5.0520    6.0044   -6.0481 H   0  0  0  0  0  0  0  0  0  0  0  0
   -5.6337    4.0933   -4.5463 H   0  0  0  0  0  0  0  0  0  0  0  0
   -5.6366    3.5815   -6.2426 H   0  0  0  0  0  0  0  0  0  0  0  0
   -4.2801    3.1633   -5.1877 H   0  0  0  0  0  0  0  0  0  0  0  0
   -0.1154    2.6877   -4.4703 H   0  0  0  0  0  0  0  0  0  0  0  0
    1.7095    1.9457   -7.9869 H   0  0  0  0  0  0  0  0  0  0  0  0
    3.5144    2.8250   -6.7770 H   0  0  0  0  0  0  0  0  0  0  0  0
    7.1888    3.2114  -10.2367 H   0  0  0  0  0  0  0  0  0  0  0  0
    6.0591    7.9868   -6.2966 H   0  0  0  0  0  0  0  0  0  0  0  0
    7.8902    8.6570   -8.0381 H   0  0  0  0  0  0  0  0  0  0  0  0
    4.9645    3.2168   -5.0768 H   0  0  0  0  0  0  0  0  0  0  0  0
    1.2929    6.4416   -3.7516 H   0  0  0  0  0  0  0  0  0  0  0  0
    1.1803    0.7627   -1.2125 H   0  0  0  0  0  0  0  0  0  0  0  0
   -0.7808    2.2092   -0.3702 H   0  0  0  0  0  0  0  0  0  0  0  0
    2.7891   -0.2419   -2.0139 H   0  0  0  0  0  0  0  0  0  0  0  0
    3.8041   -1.2335   -0.0038 H   0  0  0  0  0  0  0  0  0  0  0  0
    2.3084   -2.3771    1.5868 H   0  0  0  0  0  0  0  0  0  0  0  0
    2.6005   -6.6934    1.4646 H   0  0  0  0  0  0  0  0  0  0  0  0
    0.9990   -7.1454    0.8258 H   0  0  0  0  0  0  0  0  0  0  0  0
    1.6778   -6.7376    3.7891 H   0  0  0  0  0  0  0  0  0  0  0  0
    0.0897   -7.1698    3.1577 H   0  0  0  0  0  0  0  0  0  0  0  0
    1.4370   -8.3005    2.9983 H   0  0  0  0  0  0  0  0  0  0  0  0
    3.6770   -4.6941   -2.5205 H   0  0  0  0  0  0  0  0  0  0  0  0
    6.3957   -0.5454   -6.7151 H   0  0  0  0  0  0  0  0  0  0  0  0
    7.9764    0.5996   -8.2167 H   0  0  0  0  0  0  0  0  0  0  0  0
   11.2462    2.9257   -5.9629 H   0  0  0  0  0  0  0  0  0  0  0  0
   11.5547    3.7322   -7.5124 H   0  0  0  0  0  0  0  0  0  0  0  0
    9.6853    4.8726   -6.2813 H   0  0  0  0  0  0  0  0  0  0  0  0
    8.7764    3.3571   -6.2618 H   0  0  0  0  0  0  0  0  0  0  0  0
    9.1178    4.1608   -7.7965 H   0  0  0  0  0  0  0  0  0  0  0  0
    9.3481   -0.4917   -3.6130 H   0  0  0  0  0  0  0  0  0  0  0  0
    8.9053   -3.1389   -4.3273 H   0  0  0  0  0  0  0  0  0  0  0  0
    8.6057   -5.2945   -2.8829 H   0  0  0  0  0  0  0  0  0  0  0  0
  1  2  2  0  0  0  0
  2  3  1  0  0  0  0
  3  4  2  0  0  0  0
  4  5  1  0  0  0  0
  5  6  2  0  0  0  0
  6  7  1  0  0  0  0
  7  8  2  0  0  0  0
  8  9  1  0  0  0  0
  9 10  1  0  0  0  0
 10 11  1  0  0  0  0
  8 12  1  0  0  0  0
 12 13  1  0  0  0  0
 12 14  2  0  0  0  0
  4 15  1  0  0  0  0
 15 16  2  0  0  0  0
 16 17  1  0  0  0  0
 17 18  1  0  0  0  0
 18 19  2  0  0  0  0
 19 20  1  0  0  0  0
 20 21  2  0  0  0  0
 21 22  1  0  0  0  0
 22 23  1  0  0  0  0
 23 24  1  0  0  0  0
 21 25  1  0  0  0  0
 25 26  2  0  0  0  0
 25 27  1  0  0  0  0
 17 28  2  0  0  0  0
 28 29  1  0  0  0  0
 16 30  1  0  0  0  0
 30 31  2  0  0  0  0
 31 32  1  0  0  0  0
 31 33  1  0  0  0  0
 33 34  2  0  0  0  0
 34 35  1  0  0  0  0
 35 36  2  0  0  0  0
 36 37  1  0  0  0  0
 37 38  2  0  0  0  0
 38 39  1  0  0  0  0
 39 40  2  0  0  0  0
 40 41  1  0  0  0  0
 41 42  1  0  0  0  0
 42 43  1  0  0  0  0
 40 44  1  0  0  0  0
 44 45  1  0  0  0  0
 44 46  2  0  0  0  0
 36 47  1  0  0  0  0
 47 48  2  0  0  0  0
 48 49  1  0  0  0  0
 49 50  1  0  0  0  0
 50 51  2  0  0  0  0
 51 52  1  0  0  0  0
 52 53  2  0  0  0  0
 53 54  1  0  0  0  0
 54 55  1  0  0  0  0
 55 56  1  0  0  0  0
 53 57  1  0  0  0  0
 57 58  2  0  0  0  0
 57 59  1  0  0  0  0
 49 60  2  0  0  0  0
 60 61  1  0  0  0  0
 48 62  1  0  0  0  0
 62 63  2  0  0  0  0
 63 64  1  0  0  0  0
 63 65  1  0  0  0  0
 65 66  2  0  0  0  0
 66 67  1  0  0  0  0
 67 68  2  0  0  0  0
 68 69  1  0  0  0  0
 69 70  2  0  0  0  0
 70 71  1  0  0  0  0
 71 72  2  0  0  0  0
 72 73  1  0  0  0  0
 73 74  1  0  0  0  0
 74 75  1  0  0  0  0
 72 76  1  0  0  0  0
 76 77  1  0  0  0  0
 76 78  2  0  0  0  0
 68 79  1  0  0  0  0
 79 80  2  0  0  0  0
 80 81  1  0  0  0  0
 81 82  1  0  0  0  0
 82 83  2  0  0  0  0
 83 84  1  0  0  0  0
 84 85  2  0  0  0  0
 85 86  1  0  0  0  0
 86 87  1  0  0  0  0
 87 88  1  0  0  0  0
 85 89  1  0  0  0  0
 89 90  2  0  0  0  0
 89 91  1  0  0  0  0
 81 92  2  0  0  0  0
 92 93  1  0  0  0  0
 80 94  1  0  0  0  0
 94 95  2  0  0  0  0
 95 96  1  0  0  0  0
 95 97  1  0  0  0  0
 97 98  2  0  0  0  0
 98 99  1  0  0  0  0
 99100  1  0  0  0  0
100101  2  0  0  0  0
101102  1  0  0  0  0
100103  1  0  0  0  0
103104  2  0  0  0  0
104105  1  0  0  0  0
105106  2  0  0  0  0
106107  1  0  0  0  0
104108  1  0  0  0  0
108109  1  0  0  0  0
109110  2  0  0  0  0
110111  1  0  0  0  0
111112  1  0  0  0  0
112113  2  0  0  0  0
113114  1  0  0  0  0
112115  1  0  0  0  0
115116  2  0  0  0  0
116117  1  0  0  0  0
117118  2  0  0  0  0
118119  1  0  0  0  0
116120  1  0  0  0  0
120121  1  0  0  0  0
121122  2  0  0  0  0
122123  1  0  0  0  0
123124  2  0  0  0  0
124125  1  0  0  0  0
125126  2  0  0  0  0
126127  1  0  0  0  0
127128  2  0  0  0  0
128129  1  0  0  0  0
129130  1  0  0  0  0
130131  1  0  0  0  0
128132  1  0  0  0  0
132133  1  0  0  0  0
132134  2  0  0  0  0
124135  1  0  0  0  0
135136  2  0  0  0  0
136137  1  0  0  0  0
137138  1  0  0  0  0
138139  2  0  0  0  0
139140  1  0  0  0  0
140141  2  0  0  0  0
141142  1  0  0  0  0
142143  1  0  0  0  0
143144  1  0  0  0  0
141145  1  0  0  0  0
145146  2  0  0  0  0
145147  1  0  0  0  0
137148  2  0  0  0  0
148149  1  0  0  0  0
136150  1  0  0  0  0
150151  2  0  0  0  0
151152  1  0  0  0  0
 29  1  1  0  0  0  0
 61 33  1  0  0  0  0
 93 65  1  0  0  0  0
102 97  1  0  0  0  0
107103  1  0  0  0  0
114109  1  0  0  0  0
119115  1  0  0  0  0
149121  1  0  0  0  0
 28  3  1  0  0  0  0
 60 35  1  0  0  0  0
 92 67  1  0  0  0  0
108 99  2  0  0  0  0
120111  2  0  0  0  0
148123  1  0  0  0  0
 14  5  1  0  0  0  0
 32 15  1  0  0  0  0
 46 37  1  0  0  0  0
 64 47  1  0  0  0  0
 78 69  1  0  0  0  0
 96 79  1  0  0  0  0
134125  1  0  0  0  0
152135  1  0  0  0  0
 26 18  1  0  0  0  0
 58 50  1  0  0  0  0
 90 82  1  0  0  0  0
146138  1  0  0  0  0
  1153  1  0  0  0  0
  2154  1  0  0  0  0
  6155  1  0  0  0  0
  7156  1  0  0  0  0
 10157  1  0  0  0  0
 10158  1  0  0  0  0
 11159  1  0  0  0  0
 11160  1  0  0  0  0
 11161  1  0  0  0  0
 14162  1  0  0  0  0
 19163  1  0  0  0  0
 20164  1  0  0  0  0
 23165  1  0  0  0  0
 23166  1  0  0  0  0
 24167  1  0  0  0  0
 24168  1  0  0  0  0
 24169  1  0  0  0  0
 26170  1  0  0  0  0
 30171  1  0  0  0  0
 34172  1  0  0  0  0
 38173  1  0  0  0  0
 39174  1  0  0  0  0
 42175  1  0  0  0  0
 42176  1  0  0  0  0
 43177  1  0  0  0  0
 43178  1  0  0  0  0
 43179  1  0  0  0  0
 46180  1  0  0  0  0
 51181  1  0  0  0  0
 52182  1  0  0  0  0
 55183  1  0  0  0  0
 55184  1  0  0  0  0
 56185  1  0  0  0  0
 56186  1  0  0  0  0
 56187  1  0  0  0  0
 58188  1  0  0  0  0
 62189  1  0  0  0  0
 66190  1  0  0  0  0
 70191  1  0  0  0  0
 71192  1  0  0  0  0
 74193  1  0  0  0  0
 74194  1  0  0  0  0
 75195  1  0  0  0  0
 75196  1  0  0  0  0
 75197  1  0  0  0  0
 78198  1  0  0  0  0
 83199  1  0  0  0  0
 84200  1  0  0  0  0
 87201  1  0  0  0  0
 87202  1  0  0  0  0
 88203  1  0  0  0  0
 88204  1  0  0  0  0
 88205  1  0  0  0  0
 90206  1  0  0  0  0
 94207  1  0  0  0  0
 98208  1  0  0  0  0
101209  1  0  0  0  0
105210  1  0  0  0  0
106211  1  0  0  0  0
110212  1  0  0  0  0
113213  1  0  0  0  0
117214  1  0  0  0  0
118215  1  0  0  0  0
122216  1  0  0  0  0
126217  1  0  0  0  0
127218  1  0  0  0  0
130219  1  0  0  0  0
130220  1  0  0  0  0
131221  1  0  0  0  0
131222  1  0  0  0  0
131223  1  0  0  0  0
134224  1  0  0  0  0
139225  1  0  0  0  0
140226  1  0  0  0  0
143227  1  0  0  0  0
143228  1  0  0  0  0
144229  1  0  0  0  0
144230  1  0  0  0  0
144231  1  0  0  0  0
146232  1  0  0  0  0
150233  1  0  0  0  0
151234  1  0  0  0  0
M  END
