112

C         -1.22190        2.21270        5.03560
S         -1.64600        0.99510        6.16050
C         -2.56790        0.13330        4.95240
C         -2.50250        0.77860        3.73190
C         -1.74720        1.98710        3.79570
C         -1.57880        2.88430        2.64550
O         -0.92180        3.90670        2.69620
C         -2.31240        2.45960        1.43210
C         -2.36570        3.33440        0.35080
C         -3.04840        2.99370       -0.80180
C         -3.68290        1.76470       -0.89100
C         -3.63050        0.88360        0.17230
C         -2.95360        1.21630        1.34140
C         -2.96750        0.23700        2.45380
O         -3.31700       -0.91980        2.29980
C         -3.29740       -1.04640        5.28530
S         -2.57800       -2.29010        6.24720
C         -3.95780       -3.31940        6.10490
C         -4.97910       -2.68130        5.41240
C         -4.60030       -1.38720        4.92660
C         -5.53500       -0.61360        4.20390
C         -6.76990       -1.12500        3.94280
C         -7.10850       -2.41740        4.39690
F         -8.34480       -2.87330        4.10910
C         -6.26050       -3.19830        5.12000
C         -3.91750       -4.66930        6.62410
C         -2.99410       -5.57470        6.24670
C         -2.07770       -5.41210        5.16040
S         -2.43070       -4.38450        3.81490
C         -0.94630       -4.75880        3.01380
C         -0.19790       -5.68100        3.76440
C         -0.85400       -6.06930        4.97410
C         -0.23450       -6.99370        5.84060
C          0.98030       -7.52030        5.50980
C          1.60590       -7.12770        4.31250
F          2.80630       -7.67160        4.02620
C          1.05580       -6.23140        3.44190
C         -0.59520       -4.12380        1.80420
C         -1.44650       -3.37800        1.05340
C         -1.05370       -2.66710       -0.10290
S          0.62700       -2.33280       -0.43520
C          0.22280       -1.40030       -1.83920
C         -1.13840       -1.37550       -2.05650
C         -1.86710       -2.09590       -1.07510
C         -3.31470       -2.26860       -1.14840
O         -3.95280       -2.99820       -0.40990
C         -3.97250       -1.49110       -2.23060
C         -5.36440       -1.49160       -2.28310
C         -6.03630       -0.79090       -3.26700
C         -5.32170       -0.08490       -4.22450
C         -3.93990       -0.08450       -4.19000
C         -3.25140       -0.77720       -3.19600
C         -1.77240       -0.74210       -3.21690
O         -1.14930       -0.25130       -4.14030
C          1.25590       -0.77110       -2.61270
S          2.56720       -1.70640       -3.25310
C          3.27480       -0.30480       -3.99000
C          2.51970        0.82120       -3.74970
C          1.38460        0.56330       -2.93680
C          0.52910        1.63380       -2.41510
O         -0.42680        1.43810       -1.68570
C          0.96350        2.99910       -2.79290
C          0.29080        4.07980       -2.22900
C          0.65020        5.37850       -2.53790
C          1.68830        5.61620       -3.42660
C          2.36200        4.55260       -3.99780
C          2.01520        3.24060       -3.68660
C          2.78560        2.14850       -4.31920
O          3.54990        2.34340       -5.24480
C          4.52190       -0.39400       -4.69610
S          4.78280       -1.63060       -5.88940
C          6.34300       -1.03010       -6.23750
C          6.66220        0.06380       -5.48230
C          5.62230        0.42840       -4.58080
C          5.78570        1.51400       -3.60800
O          5.01870        1.71750       -2.68490
C          6.99520        2.34460       -3.81580
C          7.13090        3.49820       -3.04750
C          8.23740        4.31540       -3.18650
C          9.23250        3.98420       -4.09420
C          9.11280        2.83940       -4.86020
C          7.99910        2.01270       -4.73650
C          7.92580        0.80300       -5.58890
O          8.83010        0.46260       -6.32610
H         -0.60860        3.04010        5.33430
H         -1.86510        4.28720        0.44990
H         -3.08950        3.68190       -1.63320
H         -4.21960        1.49650       -1.78840
H         -4.12380       -0.07600        0.12980
H         -5.26690        0.37730        3.87260
H         -7.50880       -0.56480        3.39230
H         -6.55420       -4.17670        5.46350
H         -4.66150       -4.93530        7.36350
H         -2.94940       -6.52440        6.76290
H         -0.72370       -7.28030        6.75810
H          1.48090       -8.23360        6.14480
H          1.57250       -5.96160        2.53550
H          0.42690       -4.25260        1.46820
H         -2.49260       -3.29570        1.31950
H         -5.90060       -2.05470       -1.53320
H         -7.11580       -0.79670       -3.29210
H         -5.84290        0.46100       -4.99680
H         -3.36170        0.45270       -4.92730
H         -0.51150        3.86810       -1.53920
H          0.12390        6.20620       -2.08590
H          1.97190        6.62890       -3.67170
H          3.17410        4.71230       -4.69190
H          6.95550       -1.49610       -6.98430
H          6.34660        3.73420       -2.34330
H          8.32620        5.20880       -2.58650
H         10.09990        4.61790       -4.20310
H          9.87620        2.56000       -5.57120
