269

C          5.86170       -3.62270        4.88180
C          5.61320       -2.48470        5.56060
C          4.40970       -1.83440        5.15010
C          3.84280       -0.64810        5.64910
C          4.54260        0.19860        6.61920
C          5.89800        0.48300        6.47070
C          6.55060        1.34580        7.33010
C          5.86760        1.97710        8.36280
S          6.56340        3.12550        9.50320
C          8.12640        3.64770        8.71510
C          7.89520        4.51070        7.48930
C          4.51720        1.65990        8.51970
F          3.82350        2.23380        9.52500
C          3.85860        0.79170        7.67990
C          2.59470       -0.29490        5.14270
C          1.96110       -1.03830        4.12230
C          2.54600       -2.19400        3.58990
C          1.79800       -2.90040        2.53330
C          1.59160       -2.28340        1.29940
C          0.72310       -2.82800        0.38190
C         -0.00010       -3.98880        0.66240
S         -1.16190       -4.47610       -0.57310
C         -2.50260       -5.38590        0.28310
C         -2.37690       -6.88850        0.15040
C          0.27080       -4.62600        1.86850
C          1.15270       -4.10010        2.79460
F         -0.35340       -5.77760        2.20290
C          3.75330       -2.58160        4.13800
S          4.66080       -4.00360        3.69830
C          0.70510       -0.49440        3.76170
C          0.37020        0.62770        4.45300
S          1.60470        1.07210        5.60420
C         -0.89250        1.27960        4.22270
C         -2.02380        0.56030        3.98210
C         -3.08600        1.32830        3.44930
C         -4.28960        0.84170        2.91830
C         -4.59380       -0.59550        2.97960
C         -4.57530       -1.29540        4.18250
C         -4.75010       -2.66620        4.21690
C         -4.94030       -3.39000        3.04510
S         -5.13290       -5.14140        2.94630
C         -4.41380       -5.75540        4.50630
C         -2.91620       -5.53030        4.58060
C         -4.99630       -2.67000        1.85200
F         -5.20540       -3.33640        0.69520
C         -4.82340       -1.30640        1.80280
C         -5.04180        1.74160        2.18440
C         -4.64480        3.08190        1.93640
C         -3.47320        3.57990        2.53360
C         -2.98190        4.94370        2.29410
C         -2.77710        5.43040        1.00390
C         -2.30330        6.70810        0.80380
C         -2.00900        7.55190        1.87570
S         -1.39600        9.15590        1.47400
C         -1.90550       10.21210        2.88970
C         -1.91220       11.65890        2.43640
C         -2.17650        7.03640        3.15740
C         -2.65950        5.76110        3.37090
F         -1.86770        7.76940        4.25200
C         -2.72060        2.68580        3.28650
S         -1.10920        2.98480        3.90270
C         -5.45830        3.69060        0.93780
C         -6.41420        2.85980        0.43040
S         -6.47920        1.32830        1.29780
C         -7.00870        2.82070       -0.87600
C         -6.42580        3.29780       -2.01690
C         -6.70320        2.50550       -3.16370
C         -5.96700        2.44940       -4.35930
C         -4.91820        3.40970       -4.73170
C         -4.89500        3.94560       -6.01680
C         -3.85680        4.75380       -6.43420
C         -2.79570        5.04690       -5.58460
S         -1.40380        6.02960       -6.03830
C         -1.23880        5.69770       -7.82870
C         -0.97350        4.23400       -8.12190
C         -2.84670        4.52980       -4.29070
F         -1.85070        4.80430       -3.42590
C         -3.87440        3.71750       -3.86320
C         -6.10170        1.29380       -5.11580
C         -6.96900        0.22510       -4.78090
C         -7.81250        0.34990       -3.66530
C         -8.68250       -0.74090       -3.19830
C        -10.04170       -0.52780       -3.00180
C        -10.86330       -1.53280       -2.52630
C        -10.34790       -2.78800       -2.22600
S        -11.25760       -4.15610       -1.58940
C        -13.00460       -3.66840       -1.78360
C        -13.45240       -3.69120       -3.23280
C         -8.97750       -2.97780       -2.40880
C         -8.14800       -1.98750       -2.88090
F         -8.43930       -4.17770       -2.10480
C         -7.62860        1.47000       -2.87320
S         -8.19170        1.56570       -1.22210
C         -6.63140       -0.97000       -5.46770
C         -5.49100       -0.86190       -6.21300
S         -4.94980        0.80900       -6.33660
C         -4.53350       -1.89600       -6.46420
C         -4.46950       -3.07680       -5.77550
C         -3.16270       -3.61390       -5.68700
C         -2.72360       -4.64860       -4.84250
C         -3.61970       -5.37900       -3.93710
C         -4.45830       -4.69380       -3.06210
C         -5.23090       -5.36270       -2.13280
C         -5.18810       -6.75090       -2.04380
S         -6.07800       -7.71610       -0.87980
C         -7.04670       -6.47610        0.05350
C         -7.83190       -7.18800        1.13770
C         -4.34530       -7.42550       -2.93080
F         -4.27580       -8.77240       -2.87190
C         -3.56790       -6.76890       -3.85750
C         -1.35330       -4.82250       -4.74120
C         -0.41070       -4.02320       -5.43320
C         -0.85170       -3.04120       -6.34110
C          0.11130       -2.21220       -7.07600
C          1.13010       -2.80700       -7.81960
C          2.01280       -2.03600       -8.54400
C          1.93590       -0.64340       -8.53850
S          3.14990        0.22920       -9.48160
C          2.27310        1.70300      -10.12350
C          1.04580        1.33380      -10.93200
C          0.94690       -0.06380       -7.75050
C          0.03630       -0.82390       -7.04570
F          0.84510        1.28050       -7.63920
C         -2.22020       -2.84090       -6.41490
S         -3.00510       -1.51230       -7.23610
C          0.88800       -4.16020       -4.89230
C          0.95470       -4.99810       -3.80700
S         -0.57470       -5.81870       -3.54080
C          2.00360       -5.02680       -2.84990
S          3.29870       -3.88400       -3.02680
C          3.85190       -4.10520       -1.40120
C          3.11410       -5.10720       -0.76880
C          2.07840       -5.65280       -1.59750
C          1.28980       -6.71500       -1.10710
C          1.51780       -7.20810        0.14440
C          2.53810       -6.65440        0.94010
F          2.73400       -7.18010        2.16770
C          3.33670       -5.63380        0.51970
C          4.85180       -3.22310       -0.89920
C          4.86390       -2.70240        0.34550
C          5.79980       -1.70490        0.76050
C          5.60280       -0.70280        1.66720
C          6.68380        0.21420        1.75430
C          6.76050        1.41660        2.48200
C          5.59480        2.01260        3.14250
C          5.70620        2.64660        4.37630
C          4.64440        3.31830        4.94640
C          3.41880        3.39440        4.29690
S          2.01830        4.28710        4.87700
C          2.37170        4.55010        6.65060
C          3.13400        5.83370        6.92070
C          3.30690        2.72990        3.07310
F          2.12600        2.75120        2.41970
C          4.35700        2.05120        2.49850
C          7.98310        2.08300        2.44540
C          9.08000        1.65260        1.66220
C          8.96820        0.50770        0.86100
C         10.04360        0.09020       -0.04670
C         10.51610       -1.21850       -0.04560
C         11.51540       -1.61890       -0.91110
C         12.06960       -0.72630       -1.82120
S         13.35180       -1.10420       -2.96910
C         13.32860       -2.92750       -3.07270
C         12.06890       -3.45080       -3.73550
C         11.59170        0.58550       -1.80560
C         10.60230        0.99960       -0.94300
F         12.11160        1.48270       -2.66740
C          7.77450       -0.19150        0.94400
S          7.38060       -1.60840        0.00920
C         10.20590        2.52000        1.79410
C          9.96760        3.56920        2.60410
S          8.37040        3.57470        3.27140
H          6.68940       -4.29390        5.00320
H          6.24070       -2.12510        6.35530
H          6.44530        0.05200        5.64650
H          7.60170        1.53270        7.17920
H          8.62600        4.21570        9.49990
H          8.72290        2.76300        8.49710
H          7.35250        3.96620        6.72010
H          8.84950        4.82940        7.07490
H          7.31980        5.39420        7.75560
H          2.81930        0.57580        7.86920
H          2.09410       -1.35440        1.07490
H          0.55010       -2.33830       -0.56400
H         -3.40590       -5.03140       -0.21310
H         -2.51670       -5.05840        1.31940
H         -2.29970       -7.16770       -0.89790
H         -3.26150       -7.36280        0.57040
H         -1.50060       -7.25500        0.67670
H          1.30290       -4.62360        3.72610
H          0.08080       -0.91530        2.99510
H         -2.08090       -0.50280        4.13050
H         -4.42770       -0.75780        5.10720
H         -4.73490       -3.17010        5.17020
H         -4.64580       -6.82020        4.48950
H         -4.94700       -5.29820        5.33930
H         -2.67560       -4.46970        4.52430
H         -2.41450       -6.04340        3.76380
H         -2.53170       -5.92150        5.52040
H         -4.83600       -0.81390        0.84390
H         -2.96330        4.79280        0.15360
H         -2.14350        7.07890       -0.19680
H         -1.20160       10.05940        3.70620
H         -2.90040        9.89040        3.19380
H         -2.21200       12.30140        3.26170
H         -2.60830       11.79810        1.61240
H         -0.92100       11.95810        2.10350
H         -2.78020        5.41650        4.38630
H         -5.29410        4.68790        0.57260
H         -5.70820        4.09700       -2.00880
H         -5.70410        3.72750       -6.69760
H         -3.87390        5.15610       -7.43430
H         -0.38880        6.31520       -8.11890
H         -2.12650        6.06790       -8.34070
H         -0.81130        4.09570       -9.18910
H         -0.08970        3.89250       -7.58890
H         -1.81500        3.61440       -7.81800
H         -3.82190        3.28840       -2.87500
H        -10.46540        0.43900       -3.22910
H        -11.91030       -1.32210       -2.38280
H        -13.14810       -2.69540       -1.31550
H        -13.54340       -4.41560       -1.20080
H        -14.50610       -3.42710       -3.29880
H        -12.87900       -2.98690       -3.83190
H        -13.31620       -4.68580       -3.65110
H         -7.09070       -2.18250       -2.96850
H         -7.14990       -1.89930       -5.32050
H         -5.31100       -3.50030       -5.25920
H         -4.47120       -3.61420       -3.07530
H         -5.85760       -4.79450       -1.46710
H         -6.34810       -5.76490        0.49140
H         -7.71340       -5.97710       -0.64700
H         -8.50470       -7.92430        0.70430
H         -7.15820       -7.69420        1.82540
H         -8.41910       -6.46240        1.69550
H         -2.93290       -7.34160       -4.51530
H          1.20740       -3.88330       -7.84910
H          2.78600       -2.50060       -9.13600
H          3.02630        2.18150      -10.74980
H          2.03210        2.36280       -9.29310
H          0.28870        0.87030      -10.30250
H          1.30750        0.63890      -11.72730
H          0.61880        2.22980      -11.37830
H         -0.70320       -0.31470       -6.44830
H          1.72520       -3.56920       -5.22090
H          0.52670       -7.15040       -1.73100
H          0.94160       -8.02870        0.54100
H          4.13080       -5.26070        1.14430
H          5.57220       -2.85980       -1.62280
H          4.07980       -2.95000        1.04520
H          4.70180       -0.61320        2.24790
H          6.64420        2.61260        4.90500
H          4.78430        3.79330        5.90280
H          2.89030        3.66620        7.01870
H          1.38450        4.59020        7.11070
H          4.08540        5.85060        6.39370
H          2.55120        6.69150        6.59380
H          3.32440        5.92660        7.98840
H          4.21560        1.59700        1.53040
H         10.11160       -1.93160        0.65620
H         11.86560       -2.63710       -0.86430
H         14.20800       -3.15640       -3.67460
H         13.47660       -3.33810       -2.07460
H         12.11530       -4.53540       -3.81280
H         11.18390       -3.18080       -3.16310
H         11.97070       -3.03450       -4.73520
H         10.25230        2.01880       -0.99370
H         11.14680        2.34250        1.30590
H         10.63630        4.36280        2.87430
