269

C         -8.15560       -3.87180       11.73380
C         -7.00870       -3.32280       11.28630
C         -7.02220       -3.07300        9.88120
C         -6.00790       -2.51190        9.09050
C         -4.75040       -2.02670        9.67340
C         -3.51730       -2.41060        9.14870
C         -2.34410       -1.94420        9.69950
C         -2.34620       -1.06730       10.78470
S         -0.77510       -0.51310       11.36450
C         -1.03700       -0.18800       13.15430
C          0.30360       -0.24690       13.85980
C         -3.58520       -0.67070       11.27970
F         -3.67840        0.21270       12.30060
C         -4.76770       -1.14690       10.75050
C         -6.26030       -2.41880        7.72950
C         -7.48530       -2.82080        7.14320
C         -8.50810       -3.36520        7.93600
C         -9.78000       -3.77960        7.33190
C        -10.31320       -5.04560        7.56760
C        -11.46710       -5.45160        6.93220
C        -12.13960       -4.61240        6.04590
S        -13.59970       -5.22720        5.26680
C        -13.49430       -4.51650        3.57260
C        -14.22770       -5.43240        2.61310
C        -11.62800       -3.33100        5.86360
C        -10.46590       -2.91730        6.48070
F        -12.26220       -2.44190        5.06560
C         -8.23880       -3.49450        9.29110
S         -9.33110       -4.13500       10.49160
C         -7.48920       -2.61440        5.74050
C         -6.34240       -2.05620        5.26510
S         -5.16880       -1.76350        6.53370
C         -6.06200       -1.71300        3.90920
C         -4.88130       -1.32350        3.35530
C         -4.97010       -1.04850        1.96530
C         -3.95500       -0.61980        1.09550
C         -2.56610       -0.44950        1.53840
C         -2.21130        0.26450        2.68240
C         -0.88930        0.36960        3.05880
C          0.14210       -0.19900        2.30810
S          1.78110        0.11060        2.88380
C          2.80840       -1.27350        2.27000
C          2.34840       -2.61570        2.80130
C         -0.22720       -0.89180        1.15980
F          0.69000       -1.47490        0.35120
C         -1.54820       -1.03550        0.79230
C         -4.31350       -0.44230       -0.23510
C         -5.60700       -0.71270       -0.74320
C         -6.62660       -1.12050        0.13000
C         -8.00850       -1.32230       -0.32030
C         -8.65780       -0.35070       -1.08200
C         -9.98480       -0.49600       -1.42230
C        -10.71690       -1.61610       -1.02920
S        -12.41170       -1.69430       -1.51380
C        -13.21670       -2.56790       -0.11030
C        -14.67480       -2.15810       -0.04770
C        -10.04250       -2.60050       -0.31320
C         -8.71930       -2.45920        0.04990
F        -10.66740       -3.74400        0.05140
C         -6.27560       -1.27860        1.46370
S         -7.36140       -1.77530        2.73390
C         -5.65960       -0.58110       -2.16110
C         -4.49740       -0.14700       -2.70650
S         -3.25200        0.12490       -1.49710
C         -4.06370       -0.04510       -4.07860
C         -3.40940        0.98410       -4.67080
C         -2.80190        0.63820       -5.90930
C         -1.95070        1.41950       -6.70400
C         -1.65440        2.82220       -6.38440
C         -1.16610        3.18220       -5.12960
C         -0.85860        4.49580       -4.85060
C         -1.03510        5.50170       -5.80100
S         -0.65690        7.15280       -5.30330
C         -0.06160        7.95760       -6.84480
C          0.82570        9.12900       -6.47210
C         -1.53440        5.12720       -7.04430
F         -1.76750        6.04860       -8.00740
C         -1.82290        3.81110       -7.34570
C         -1.29860        0.77450       -7.74130
C         -1.41730       -0.61630       -7.98540
C         -2.32350       -1.38170       -7.23580
C         -2.41910       -2.84060       -7.37050
C         -3.64640       -3.47040       -7.54400
C         -3.73910       -4.84740       -7.62020
C         -2.60420       -5.64360       -7.52050
S         -2.57750       -7.40550       -7.57050
C         -4.22190       -7.86180       -8.21830
C         -4.38220       -7.51020       -9.68510
C         -1.38170       -4.99760       -7.32550
C         -1.27490       -3.62740       -7.25060
F         -0.26200       -5.73950       -7.19170
C         -3.01900       -0.72100       -6.23620
S         -4.05130       -1.49950       -5.06570
C         -0.44340       -1.07360       -8.90500
C          0.41460       -0.09890       -9.33130
S         -0.04980        1.48950       -8.72710
C          1.72230       -0.30410       -9.85600
S          2.53950       -1.74390       -9.34630
C          4.12200       -1.07340       -9.65090
C          3.99420        0.14520      -10.33680
C          2.63330        0.59210      -10.42450
C          2.33710        1.83410      -11.02240
C          3.34820        2.59510      -11.53200
C          4.67430        2.13090      -11.45440
F          5.64090        2.90330      -11.99270
C          5.01920        0.94340      -10.87550
C          5.11730       -1.58420       -8.78680
C          6.24040       -0.97120       -8.31810
C          6.56750       -1.11740       -6.93350
C          5.61580       -1.34800       -5.97540
C          6.02680       -1.04350       -4.66270
C          5.20290       -0.94020       -3.53110
C          3.74880       -1.12860       -3.61730
C          3.06580       -1.94880       -2.72590
C          1.69340       -2.09680       -2.79460
C          0.95390       -1.42340       -3.75920
S         -0.79650       -1.46980       -3.94380
C         -1.32850       -2.86780       -2.90140
C         -1.02070       -4.20640       -3.54250
C          1.65070       -0.59870       -4.64350
F          0.96120        0.07470       -5.59310
C          3.01550       -0.44120       -4.58530
C          5.81640       -0.52750       -2.36210
C          7.19750       -0.21830       -2.27100
C          8.01040       -0.28340       -3.42060
C          9.42600        0.10020       -3.38380
C         10.39660       -0.71950       -3.95170
C         11.73630       -0.38460       -3.90700
C         12.15680        0.78590       -3.28670
S         13.82180        1.34360       -3.14730
C         14.82440       -0.04940       -3.76820
C         14.90220       -1.19490       -2.77620
C         11.17020        1.61020       -2.74170
C          9.83260        1.29210       -2.78520
F         11.53920        2.76360       -2.14400
C          7.39470       -0.68040       -4.59900
S          8.09460       -0.64310       -6.20590
C          7.54240        0.22990       -0.96780
C          6.47350        0.33940       -0.12820
S          4.98190       -0.19640       -0.87180
C          6.41620        0.90790        1.18350
C          7.41440        1.10900        2.08810
C          6.98170        1.77820        3.26510
C          7.73430        2.11940        4.40070
C          9.18440        1.90010        4.44360
C          9.99330        2.34610        3.40130
C         11.36200        2.16490        3.42750
C         11.97420        1.53070        4.50270
S         13.70090        1.21310        4.65080
C         14.46540        2.31600        3.41150
C         14.35540        3.77870        3.79690
C         11.15070        1.08300        5.53750
F         11.70800        0.44830        6.58820
C          9.78550        1.26060        5.52520
C          7.04320        2.70940        5.45070
C          5.66110        3.01790        5.39890
C          4.91710        2.71040        4.25310
C          3.49570        3.04780        4.10020
C          2.52860        2.65990        5.02420
C          1.19730        2.93040        4.79470
C          0.76810        3.61110        3.65280
S         -0.97620        3.85760        3.51460
C         -1.33050        4.27130        1.76870
C         -1.03440        3.13270        0.81360
C          1.75340        4.04460        2.77290
C          3.08680        3.75580        2.97640
F          1.45480        4.77960        1.67700
C          5.60000        2.08250        3.22150
S          4.87800        1.54310        1.73330
C          5.22640        3.69210        6.57890
C          6.21760        3.87360        7.47380
S          7.74630        3.24880        6.95460
H         -8.40200       -4.15630       12.73820
H         -6.16460       -3.10930       11.91640
H         -3.47900       -3.10070        8.32030
H         -1.39200       -2.25310        9.29730
H         -1.49660        0.79300       13.26380
H         -1.71200       -0.95700       13.52700
H          0.16700       -0.05800       14.92240
H          0.76000       -1.22620       13.73350
H          0.98010        0.50300       13.45640
H         -5.69920       -0.79200       11.16400
H         -9.79900       -5.72920        8.22500
H        -11.86450       -6.44010        7.10080
H        -12.43790       -4.44740        3.31760
H        -13.93700       -3.52140        3.58800
H        -14.15370       -5.04000        1.60140
H        -15.27820       -5.50860        2.88450
H        -13.79350       -6.42940        2.63260
H        -10.12040       -1.90880        6.31310
H         -8.30560       -2.88860        5.09700
H         -3.97220       -1.25130        3.92450
H         -2.97000        0.76020        3.26810
H         -0.62320        0.91810        3.94770
H          3.79810       -1.02370        2.65300
H          2.83560       -1.24030        1.18310
H          2.31340       -2.60280        3.88860
H          3.04270       -3.39050        2.48230
H          1.35870       -2.86780        2.42740
H         -1.77490       -1.61810       -0.08620
H         -8.12570        0.54230       -1.37230
H        -10.48980        0.26860       -1.99190
H        -12.68770       -2.27780        0.79630
H        -13.11280       -3.64000       -0.27300
H        -14.76230       -1.08320        0.09300
H        -15.16350       -2.66010        0.78470
H        -15.18760       -2.42810       -0.96810
H         -8.24830       -3.25850        0.60030
H         -6.52910       -0.82120       -2.74620
H         -3.33200        1.95860       -4.22330
H         -0.99120        2.41780       -4.38810
H         -0.46700        4.77230       -3.88380
H         -0.92660        8.28600       -7.41910
H          0.49200        7.20650       -7.40610
H          1.67870        8.79130       -5.88770
H          0.27060        9.85560       -5.88310
H          1.18910        9.61580       -7.37460
H         -2.20570        3.57510       -8.32660
H         -4.54300       -2.87550       -7.62980
H         -4.71080       -5.29520       -7.74890
H         -4.98470       -7.40140       -7.59180
H         -4.26020       -8.94140       -8.07270
H         -3.61860       -8.01060      -10.27580
H         -4.28940       -6.43780       -9.84330
H         -5.36080       -7.83060      -10.03760
H         -0.31020       -3.18060       -7.06800
H         -0.33790       -2.10210       -9.20090
H          1.31080        2.16000      -11.08540
H          3.15870        3.54380      -12.00810
H          6.04580        0.61750      -10.86310
H          4.78250       -2.45140       -8.22880
H          6.75970       -0.20300       -8.86920
H          4.60750       -1.63330       -6.20930
H          3.61480       -2.49120       -1.97150
H          1.20750       -2.73570       -2.07680
H         -2.40510       -2.72360       -2.80390
H         -0.86620       -2.75900       -1.92200
H         -1.35580       -5.01440       -2.89510
H         -1.53540       -4.29040       -4.49720
H          0.04740       -4.32040       -3.71550
H          3.49600        0.23580       -5.27440
H         10.10290       -1.64530       -4.42220
H         12.45040       -1.05010       -4.36330
H         15.80810        0.39390       -3.92370
H         14.42760       -0.35740       -4.73450
H         15.52510       -1.99130       -3.17910
H         13.91480       -1.59900       -2.56390
H         15.33890       -0.85180       -1.84120
H          9.11430        1.98500       -2.37620
H          8.54120        0.49300       -0.67230
H          8.42110        0.76300        1.94020
H          9.54680        2.86390        2.56570
H         11.94810        2.52070        2.59570
H         15.50730        1.99600        3.39860
H         14.02790        2.10740        2.43610
H         14.85290        4.39540        3.05090
H         14.82740        3.94900        4.76170
H         13.31480        4.08840        3.86540
H          9.20020        0.88540        6.34950
H          2.81820        2.10800        5.90500
H          0.45070        2.61230        5.50660
H         -0.78650        5.17600        1.50850
H         -2.39770        4.49590        1.78640
H          0.01180        2.84020        0.86230
H         -1.64460        2.26390        1.04800
H         -1.25290        3.44930       -0.20410
H          3.80220        4.11580        2.25330
H          4.21620        4.02860        6.72510
H          6.16070        4.34570        8.43520
