204

C         12.84140        3.65110        6.61630
C         12.38350        4.07110        7.81340
C         10.97790        3.89230        7.95910
C         10.16260        4.27580        9.03630
C         10.73190        4.78180       10.27340
S         10.19110        6.26710       10.99610
C         11.28350        6.10690       12.32920
C         11.29810        7.10530       13.43330
C         10.14080        6.86050       14.40440
C         12.00900        4.95910       12.21260
Cl        13.18740        4.44880       13.35130
C         11.70390        4.20800       11.04570
Cl        12.43550        2.69300       10.70490
C          8.79330        4.14580        8.85930
C          8.20620        3.57350        7.70380
C          9.02870        3.09910        6.66450
C          8.50360        2.42980        5.48710
S          7.21960        3.09230        4.51150
C          7.32480        1.81440        3.34740
C          6.43600        1.76940        2.15200
C          5.51180        0.55060        2.17530
C          8.28900        0.92470        3.71680
C          8.94920        1.26180        4.92760
Cl        10.11120        0.22390        5.64060
Cl         8.72220       -0.46260        2.80600
C         10.39870        3.31030        6.80680
S         11.60950        3.00240        5.59380
C          6.79600        3.56090        7.78790
C          6.29660        4.11490        8.93910
S          7.58440        4.63460       10.01050
C          4.92260        4.32470        9.22620
S          3.77190        3.84030        8.02700
C          2.42740        4.50580        8.88640
C          2.86160        5.05270       10.10240
C          4.27820        4.95780       10.29740
C          4.85230        5.48410       11.47400
C          4.05960        6.08060       12.41020
C          2.67230        6.16950       12.19480
F          1.92550        6.76940       13.14450
C          2.06220        5.67980       11.07830
C          1.08260        4.37760        8.44300
C          0.64550        4.01940        7.21330
C          1.43370        3.89380        6.02200
S          2.56480        5.09800        5.52000
C          2.99630        4.24880        4.06990
C          2.28080        3.05120        3.98520
C          1.36470        2.87390        5.07310
C          0.55980        1.71600        5.14480
C          0.64790        0.76890        4.16940
C          1.58480        0.93770        3.13200
F          1.67920       -0.04000        2.20560
C          2.40480        2.02070        3.03000
C          4.01360        4.83510        3.25010
C          4.18010        4.74020        1.91390
C          3.24750        4.13320        1.00750
C          1.88850        4.13360        1.08610
C          1.25860        3.30780        0.12410
C         -0.11330        3.03670       -0.01750
C         -1.08820        3.61820        0.88880
S         -0.86180        3.51340        2.61120
C         -2.34430        4.34390        2.93960
C         -2.78000        4.59010        4.34200
C         -3.16020        3.28430        5.04140
C         -2.97170        4.66630        1.77430
Cl        -4.46900        5.49930        1.68790
C         -2.26340        4.25860        0.61000
Cl        -2.81050        4.63300       -0.96960
C         -0.47570        2.13430       -1.00960
C          0.46710        1.50710       -1.86340
C          1.83660        1.80580       -1.74300
C          2.83000        1.18130       -2.59890
S          4.23670        0.41610       -1.91830
C          4.84490       -0.03220       -3.47340
C          6.09810       -0.82340       -3.61210
C          5.82260       -2.31950       -3.44250
C          3.99530        0.38820       -4.45290
C          2.85380        1.07770       -3.96280
Cl         1.68400        1.77370       -5.01120
Cl         4.26870        0.13560       -6.12820
C          2.19790        2.68960       -0.73570
S          3.82490        3.17390       -0.34650
C         -0.14420        0.55400       -2.71200
C         -1.49430        0.45480       -2.53670
S         -2.08210        1.53730       -1.29700
C         -2.39620       -0.39880       -3.24140
C         -2.12790       -1.13790       -4.35700
C         -3.23620       -1.88840       -4.81670
C         -3.30360       -2.73320       -5.94050
C         -2.17180       -2.86370       -6.84320
S         -1.42350       -1.44960       -7.52990
C         -0.27480       -2.38920       -8.42030
C          0.78040       -1.73020       -9.23740
C          1.85600       -1.11290       -8.34130
C         -0.46990       -3.71690       -8.18510
Cl         0.47860       -4.96470       -8.88420
C         -1.54590       -3.99110       -7.29710
Cl        -1.92750       -5.58340       -6.79140
C         -4.50050       -3.40450       -6.15070
C         -5.62360       -3.25850       -5.29700
C         -5.57530       -2.36790       -4.21100
C         -6.74660       -2.12620       -3.38720
S         -6.67610       -2.21810       -1.65260
C         -8.35100       -1.81970       -1.48560
C         -9.00710       -1.77880       -0.14990
C         -9.52940       -3.16230        0.24500
C         -8.91900       -1.63160       -2.71060
C         -8.01260       -1.79900       -3.79120
Cl        -8.46900       -1.52550       -5.42340
Cl       -10.56830       -1.22200       -2.94760
C         -4.36880       -1.71970       -3.98350
S         -4.04730       -0.59480       -2.69670
C         -6.69770       -4.09180       -5.69150
C         -6.44640       -4.80230       -6.82700
S         -4.84700       -4.48910       -7.46670
C         -7.31030       -5.73220       -7.47550
C         -7.07150       -6.43830       -8.61620
C         -8.13660       -7.29900       -8.98070
C         -8.20460       -8.18220      -10.07030
C         -7.10130       -8.31300      -11.00820
S         -5.48980       -8.67520      -10.46160
C         -4.85890       -8.68290      -12.07230
C         -3.42940       -9.00030      -12.34040
C         -3.21660      -10.51190      -12.45120
C         -5.85140       -8.42450      -12.96970
Cl        -5.60960       -8.34730      -14.66660
C         -7.12250       -8.21120      -12.37150
Cl        -8.50650       -7.78230      -13.28590
C         -9.36140       -8.94350      -10.19320
C        -10.44670       -8.84860       -9.28910
C        -10.38860       -7.94880       -8.21360
C        -11.47740       -7.82650       -7.25640
S        -12.08170       -9.21120       -6.39420
C        -13.22500       -8.26150       -5.50830
C        -14.10420       -8.87280       -4.47370
C        -13.42070       -8.86820       -3.10410
C        -13.12730       -6.95040       -5.86600
C        -12.14050       -6.69940       -6.85760
Cl       -11.88720       -5.14150       -7.52550
Cl       -14.10200       -5.70440       -5.20180
C         -9.22720       -7.19770       -8.08200
S         -8.88650       -6.07770       -6.79570
C        -11.49860       -9.74530       -9.63680
C        -11.20970      -10.49470      -10.72040
S         -9.65830      -10.15860      -11.40310
H         13.84910        3.67710        6.25030
H         13.00540        4.51670        8.56740
H         11.21340        8.11020       13.01580
H         12.24790        7.02520       13.96470
H         10.16160        7.59700       15.20300
H         10.21960        5.86880       14.84260
H          9.18980        6.93580       13.88240
H          5.84340        2.68490        2.11840
H          7.05370        1.72730        1.25100
H          4.86760        0.55840        1.29960
H          6.09110       -0.36730        2.16250
H          4.89620        0.55670        3.07150
H          6.16020        3.17660        7.01070
H          5.91520        5.41130       11.63330
H          4.47010        6.48960       13.31930
H          0.99620        5.77600       10.95350
H          0.33780        4.52650        9.21340
H         -0.40720        3.79180        7.09690
H         -0.11260        1.59070        5.97920
H          0.03950       -0.12100        4.18080
H          3.14120        2.06540        2.24980
H          4.73230        5.43280        3.79750
H          5.08200        5.14550        1.47510
H          1.35720        4.71180        1.81810
H         -1.96620        5.07030        4.89150
H         -3.63520        5.26720        4.32620
H         -3.45770        3.48130        6.06810
H         -2.31400        2.60060        5.04110
H         -3.98980        2.80790        4.52530
H          6.52170       -0.63870       -4.60100
H          6.81570       -0.49950       -2.85650
H          5.40240       -2.51600       -2.45910
H          5.11860       -2.66140       -4.19680
H          6.74580       -2.88270       -3.54720
H          0.40180       -0.05940       -3.40290
H         -1.16790       -1.14340       -4.83740
H          1.22920       -2.47600       -9.89540
H          0.33060       -0.94750       -9.85190
H          2.62300       -0.63970       -8.94850
H          2.32280       -1.87960       -7.72760
H          1.41800       -0.36240       -7.68730
H         -9.83900       -1.07300       -0.18960
H         -8.28850       -1.43370        0.59510
H        -10.25580       -3.51220       -0.48400
H         -8.71010       -3.87590        0.29020
H        -10.00790       -3.11670        1.21960
H         -7.62040       -4.17980       -5.14740
H         -6.15740       -6.34230       -9.17360
H         -2.81250       -8.60430      -11.53200
H         -3.13360       -8.52040      -13.27520
H         -2.17010      -10.72770      -12.64900
H         -3.81610      -10.91820      -13.26190
H         -3.50580      -11.00260      -11.52480
H        -15.03210       -8.30010       -4.41940
H        -14.34080       -9.89890       -4.75960
H        -12.49450       -9.43680       -3.14230
H        -14.07430       -9.31430       -2.35950
H        -13.19120       -7.84970       -2.80200
H        -12.42200       -9.81610       -9.09240
H        -11.82240      -11.24200      -11.18550
