
  xtb     03042221273D
 energy: -469.654268461690 gnorm: 0.000359187858 xtb: 6.4.1 (unknown)
269295  0     0  0            999 V2000
   -8.1556   -3.8718   11.7338 C   0  0  0  0  0  0  0  0  0  0  0  0
   -7.0087   -3.3228   11.2863 C   0  0  0  0  0  0  0  0  0  0  0  0
   -7.0222   -3.0730    9.8812 C   0  0  0  0  0  0  0  0  0  0  0  0
   -6.0079   -2.5119    9.0905 C   0  0  0  0  0  0  0  0  0  0  0  0
   -4.7504   -2.0267    9.6734 C   0  0  0  0  0  0  0  0  0  0  0  0
   -3.5173   -2.4106    9.1487 C   0  0  0  0  0  0  0  0  0  0  0  0
   -2.3441   -1.9442    9.6995 C   0  0  0  0  0  0  0  0  0  0  0  0
   -2.3462   -1.0673   10.7847 C   0  0  0  0  0  0  0  0  0  0  0  0
   -0.7751   -0.5131   11.3645 S   0  0  0  0  0  0  0  0  0  0  0  0
   -1.0370   -0.1880   13.1543 C   0  0  0  0  0  0  0  0  0  0  0  0
    0.3036   -0.2469   13.8598 C   0  0  0  0  0  0  0  0  0  0  0  0
   -3.5852   -0.6707   11.2797 C   0  0  0  0  0  0  0  0  0  0  0  0
   -3.6784    0.2127   12.3006 F   0  0  0  0  0  0  0  0  0  0  0  0
   -4.7677   -1.1469   10.7505 C   0  0  0  0  0  0  0  0  0  0  0  0
   -6.2603   -2.4188    7.7295 C   0  0  0  0  0  0  0  0  0  0  0  0
   -7.4853   -2.8208    7.1432 C   0  0  0  0  0  0  0  0  0  0  0  0
   -8.5081   -3.3652    7.9360 C   0  0  0  0  0  0  0  0  0  0  0  0
   -9.7800   -3.7796    7.3319 C   0  0  0  0  0  0  0  0  0  0  0  0
  -10.3132   -5.0456    7.5676 C   0  0  0  0  0  0  0  0  0  0  0  0
  -11.4671   -5.4516    6.9322 C   0  0  0  0  0  0  0  0  0  0  0  0
  -12.1396   -4.6124    6.0459 C   0  0  0  0  0  0  0  0  0  0  0  0
  -13.5997   -5.2272    5.2668 S   0  0  0  0  0  0  0  0  0  0  0  0
  -13.4943   -4.5165    3.5726 C   0  0  0  0  0  0  0  0  0  0  0  0
  -14.2277   -5.4324    2.6131 C   0  0  0  0  0  0  0  0  0  0  0  0
  -11.6280   -3.3310    5.8636 C   0  0  0  0  0  0  0  0  0  0  0  0
  -10.4659   -2.9173    6.4807 C   0  0  0  0  0  0  0  0  0  0  0  0
  -12.2622   -2.4419    5.0656 F   0  0  0  0  0  0  0  0  0  0  0  0
   -8.2388   -3.4945    9.2911 C   0  0  0  0  0  0  0  0  0  0  0  0
   -9.3311   -4.1350   10.4916 S   0  0  0  0  0  0  0  0  0  0  0  0
   -7.4892   -2.6144    5.7405 C   0  0  0  0  0  0  0  0  0  0  0  0
   -6.3424   -2.0562    5.2651 C   0  0  0  0  0  0  0  0  0  0  0  0
   -5.1688   -1.7635    6.5337 S   0  0  0  0  0  0  0  0  0  0  0  0
   -6.0620   -1.7130    3.9092 C   0  0  0  0  0  0  0  0  0  0  0  0
   -4.8813   -1.3235    3.3553 C   0  0  0  0  0  0  0  0  0  0  0  0
   -4.9701   -1.0485    1.9653 C   0  0  0  0  0  0  0  0  0  0  0  0
   -3.9550   -0.6198    1.0955 C   0  0  0  0  0  0  0  0  0  0  0  0
   -2.5661   -0.4495    1.5384 C   0  0  0  0  0  0  0  0  0  0  0  0
   -2.2113    0.2645    2.6824 C   0  0  0  0  0  0  0  0  0  0  0  0
   -0.8893    0.3696    3.0588 C   0  0  0  0  0  0  0  0  0  0  0  0
    0.1421   -0.1990    2.3081 C   0  0  0  0  0  0  0  0  0  0  0  0
    1.7811    0.1106    2.8838 S   0  0  0  0  0  0  0  0  0  0  0  0
    2.8084   -1.2735    2.2700 C   0  0  0  0  0  0  0  0  0  0  0  0
    2.3484   -2.6157    2.8013 C   0  0  0  0  0  0  0  0  0  0  0  0
   -0.2272   -0.8918    1.1598 C   0  0  0  0  0  0  0  0  0  0  0  0
    0.6900   -1.4749    0.3512 F   0  0  0  0  0  0  0  0  0  0  0  0
   -1.5482   -1.0355    0.7923 C   0  0  0  0  0  0  0  0  0  0  0  0
   -4.3135   -0.4423   -0.2351 C   0  0  0  0  0  0  0  0  0  0  0  0
   -5.6070   -0.7127   -0.7432 C   0  0  0  0  0  0  0  0  0  0  0  0
   -6.6266   -1.1205    0.1300 C   0  0  0  0  0  0  0  0  0  0  0  0
   -8.0085   -1.3223   -0.3203 C   0  0  0  0  0  0  0  0  0  0  0  0
   -8.6578   -0.3507   -1.0820 C   0  0  0  0  0  0  0  0  0  0  0  0
   -9.9848   -0.4960   -1.4223 C   0  0  0  0  0  0  0  0  0  0  0  0
  -10.7169   -1.6161   -1.0292 C   0  0  0  0  0  0  0  0  0  0  0  0
  -12.4117   -1.6943   -1.5138 S   0  0  0  0  0  0  0  0  0  0  0  0
  -13.2167   -2.5679   -0.1103 C   0  0  0  0  0  0  0  0  0  0  0  0
  -14.6748   -2.1581   -0.0477 C   0  0  0  0  0  0  0  0  0  0  0  0
  -10.0425   -2.6005   -0.3132 C   0  0  0  0  0  0  0  0  0  0  0  0
   -8.7193   -2.4592    0.0499 C   0  0  0  0  0  0  0  0  0  0  0  0
  -10.6674   -3.7440    0.0514 F   0  0  0  0  0  0  0  0  0  0  0  0
   -6.2756   -1.2786    1.4637 C   0  0  0  0  0  0  0  0  0  0  0  0
   -7.3614   -1.7753    2.7339 S   0  0  0  0  0  0  0  0  0  0  0  0
   -5.6596   -0.5811   -2.1611 C   0  0  0  0  0  0  0  0  0  0  0  0
   -4.4974   -0.1470   -2.7065 C   0  0  0  0  0  0  0  0  0  0  0  0
   -3.2520    0.1249   -1.4971 S   0  0  0  0  0  0  0  0  0  0  0  0
   -4.0637   -0.0451   -4.0786 C   0  0  0  0  0  0  0  0  0  0  0  0
   -3.4094    0.9841   -4.6708 C   0  0  0  0  0  0  0  0  0  0  0  0
   -2.8019    0.6382   -5.9093 C   0  0  0  0  0  0  0  0  0  0  0  0
   -1.9507    1.4195   -6.7040 C   0  0  0  0  0  0  0  0  0  0  0  0
   -1.6544    2.8222   -6.3844 C   0  0  0  0  0  0  0  0  0  0  0  0
   -1.1661    3.1822   -5.1296 C   0  0  0  0  0  0  0  0  0  0  0  0
   -0.8586    4.4958   -4.8506 C   0  0  0  0  0  0  0  0  0  0  0  0
   -1.0351    5.5017   -5.8010 C   0  0  0  0  0  0  0  0  0  0  0  0
   -0.6569    7.1528   -5.3033 S   0  0  0  0  0  0  0  0  0  0  0  0
   -0.0616    7.9576   -6.8448 C   0  0  0  0  0  0  0  0  0  0  0  0
    0.8257    9.1290   -6.4721 C   0  0  0  0  0  0  0  0  0  0  0  0
   -1.5344    5.1272   -7.0443 C   0  0  0  0  0  0  0  0  0  0  0  0
   -1.7675    6.0486   -8.0074 F   0  0  0  0  0  0  0  0  0  0  0  0
   -1.8229    3.8111   -7.3457 C   0  0  0  0  0  0  0  0  0  0  0  0
   -1.2986    0.7745   -7.7413 C   0  0  0  0  0  0  0  0  0  0  0  0
   -1.4173   -0.6163   -7.9854 C   0  0  0  0  0  0  0  0  0  0  0  0
   -2.3235   -1.3817   -7.2358 C   0  0  0  0  0  0  0  0  0  0  0  0
   -2.4191   -2.8406   -7.3705 C   0  0  0  0  0  0  0  0  0  0  0  0
   -3.6464   -3.4704   -7.5440 C   0  0  0  0  0  0  0  0  0  0  0  0
   -3.7391   -4.8474   -7.6202 C   0  0  0  0  0  0  0  0  0  0  0  0
   -2.6042   -5.6436   -7.5205 C   0  0  0  0  0  0  0  0  0  0  0  0
   -2.5775   -7.4055   -7.5705 S   0  0  0  0  0  0  0  0  0  0  0  0
   -4.2219   -7.8618   -8.2183 C   0  0  0  0  0  0  0  0  0  0  0  0
   -4.3822   -7.5102   -9.6851 C   0  0  0  0  0  0  0  0  0  0  0  0
   -1.3817   -4.9976   -7.3255 C   0  0  0  0  0  0  0  0  0  0  0  0
   -1.2749   -3.6274   -7.2506 C   0  0  0  0  0  0  0  0  0  0  0  0
   -0.2620   -5.7395   -7.1917 F   0  0  0  0  0  0  0  0  0  0  0  0
   -3.0190   -0.7210   -6.2362 C   0  0  0  0  0  0  0  0  0  0  0  0
   -4.0513   -1.4995   -5.0657 S   0  0  0  0  0  0  0  0  0  0  0  0
   -0.4434   -1.0736   -8.9050 C   0  0  0  0  0  0  0  0  0  0  0  0
    0.4146   -0.0989   -9.3313 C   0  0  0  0  0  0  0  0  0  0  0  0
   -0.0498    1.4895   -8.7271 S   0  0  0  0  0  0  0  0  0  0  0  0
    1.7223   -0.3041   -9.8560 C   0  0  0  0  0  0  0  0  0  0  0  0
    2.5395   -1.7439   -9.3463 S   0  0  0  0  0  0  0  0  0  0  0  0
    4.1220   -1.0734   -9.6509 C   0  0  0  0  0  0  0  0  0  0  0  0
    3.9942    0.1452  -10.3368 C   0  0  0  0  0  0  0  0  0  0  0  0
    2.6333    0.5921  -10.4245 C   0  0  0  0  0  0  0  0  0  0  0  0
    2.3371    1.8341  -11.0224 C   0  0  0  0  0  0  0  0  0  0  0  0
    3.3482    2.5951  -11.5320 C   0  0  0  0  0  0  0  0  0  0  0  0
    4.6743    2.1309  -11.4544 C   0  0  0  0  0  0  0  0  0  0  0  0
    5.6409    2.9033  -11.9927 F   0  0  0  0  0  0  0  0  0  0  0  0
    5.0192    0.9434  -10.8755 C   0  0  0  0  0  0  0  0  0  0  0  0
    5.1173   -1.5842   -8.7868 C   0  0  0  0  0  0  0  0  0  0  0  0
    6.2404   -0.9712   -8.3181 C   0  0  0  0  0  0  0  0  0  0  0  0
    6.5675   -1.1174   -6.9335 C   0  0  0  0  0  0  0  0  0  0  0  0
    5.6158   -1.3480   -5.9754 C   0  0  0  0  0  0  0  0  0  0  0  0
    6.0268   -1.0435   -4.6627 C   0  0  0  0  0  0  0  0  0  0  0  0
    5.2029   -0.9402   -3.5311 C   0  0  0  0  0  0  0  0  0  0  0  0
    3.7488   -1.1286   -3.6173 C   0  0  0  0  0  0  0  0  0  0  0  0
    3.0658   -1.9488   -2.7259 C   0  0  0  0  0  0  0  0  0  0  0  0
    1.6934   -2.0968   -2.7946 C   0  0  0  0  0  0  0  0  0  0  0  0
    0.9539   -1.4234   -3.7592 C   0  0  0  0  0  0  0  0  0  0  0  0
   -0.7965   -1.4698   -3.9438 S   0  0  0  0  0  0  0  0  0  0  0  0
   -1.3285   -2.8678   -2.9014 C   0  0  0  0  0  0  0  0  0  0  0  0
   -1.0207   -4.2064   -3.5425 C   0  0  0  0  0  0  0  0  0  0  0  0
    1.6507   -0.5987   -4.6435 C   0  0  0  0  0  0  0  0  0  0  0  0
    0.9612    0.0747   -5.5931 F   0  0  0  0  0  0  0  0  0  0  0  0
    3.0155   -0.4412   -4.5853 C   0  0  0  0  0  0  0  0  0  0  0  0
    5.8164   -0.5275   -2.3621 C   0  0  0  0  0  0  0  0  0  0  0  0
    7.1975   -0.2183   -2.2710 C   0  0  0  0  0  0  0  0  0  0  0  0
    8.0104   -0.2834   -3.4206 C   0  0  0  0  0  0  0  0  0  0  0  0
    9.4260    0.1002   -3.3838 C   0  0  0  0  0  0  0  0  0  0  0  0
   10.3966   -0.7195   -3.9517 C   0  0  0  0  0  0  0  0  0  0  0  0
   11.7363   -0.3846   -3.9070 C   0  0  0  0  0  0  0  0  0  0  0  0
   12.1568    0.7859   -3.2867 C   0  0  0  0  0  0  0  0  0  0  0  0
   13.8218    1.3436   -3.1473 S   0  0  0  0  0  0  0  0  0  0  0  0
   14.8244   -0.0494   -3.7682 C   0  0  0  0  0  0  0  0  0  0  0  0
   14.9022   -1.1949   -2.7762 C   0  0  0  0  0  0  0  0  0  0  0  0
   11.1702    1.6102   -2.7417 C   0  0  0  0  0  0  0  0  0  0  0  0
    9.8326    1.2921   -2.7852 C   0  0  0  0  0  0  0  0  0  0  0  0
   11.5392    2.7636   -2.1440 F   0  0  0  0  0  0  0  0  0  0  0  0
    7.3947   -0.6804   -4.5990 C   0  0  0  0  0  0  0  0  0  0  0  0
    8.0946   -0.6431   -6.2059 S   0  0  0  0  0  0  0  0  0  0  0  0
    7.5424    0.2299   -0.9678 C   0  0  0  0  0  0  0  0  0  0  0  0
    6.4735    0.3394   -0.1282 C   0  0  0  0  0  0  0  0  0  0  0  0
    4.9819   -0.1964   -0.8718 S   0  0  0  0  0  0  0  0  0  0  0  0
    6.4162    0.9079    1.1835 C   0  0  0  0  0  0  0  0  0  0  0  0
    7.4144    1.1090    2.0881 C   0  0  0  0  0  0  0  0  0  0  0  0
    6.9817    1.7782    3.2651 C   0  0  0  0  0  0  0  0  0  0  0  0
    7.7343    2.1194    4.4007 C   0  0  0  0  0  0  0  0  0  0  0  0
    9.1844    1.9001    4.4436 C   0  0  0  0  0  0  0  0  0  0  0  0
    9.9933    2.3461    3.4013 C   0  0  0  0  0  0  0  0  0  0  0  0
   11.3620    2.1649    3.4275 C   0  0  0  0  0  0  0  0  0  0  0  0
   11.9742    1.5307    4.5027 C   0  0  0  0  0  0  0  0  0  0  0  0
   13.7009    1.2131    4.6508 S   0  0  0  0  0  0  0  0  0  0  0  0
   14.4654    2.3160    3.4115 C   0  0  0  0  0  0  0  0  0  0  0  0
   14.3554    3.7787    3.7969 C   0  0  0  0  0  0  0  0  0  0  0  0
   11.1507    1.0830    5.5375 C   0  0  0  0  0  0  0  0  0  0  0  0
   11.7080    0.4483    6.5882 F   0  0  0  0  0  0  0  0  0  0  0  0
    9.7855    1.2606    5.5252 C   0  0  0  0  0  0  0  0  0  0  0  0
    7.0432    2.7094    5.4507 C   0  0  0  0  0  0  0  0  0  0  0  0
    5.6611    3.0179    5.3989 C   0  0  0  0  0  0  0  0  0  0  0  0
    4.9171    2.7104    4.2531 C   0  0  0  0  0  0  0  0  0  0  0  0
    3.4957    3.0478    4.1002 C   0  0  0  0  0  0  0  0  0  0  0  0
    2.5286    2.6599    5.0242 C   0  0  0  0  0  0  0  0  0  0  0  0
    1.1973    2.9304    4.7947 C   0  0  0  0  0  0  0  0  0  0  0  0
    0.7681    3.6111    3.6528 C   0  0  0  0  0  0  0  0  0  0  0  0
   -0.9762    3.8576    3.5146 S   0  0  0  0  0  0  0  0  0  0  0  0
   -1.3305    4.2713    1.7687 C   0  0  0  0  0  0  0  0  0  0  0  0
   -1.0344    3.1327    0.8136 C   0  0  0  0  0  0  0  0  0  0  0  0
    1.7534    4.0446    2.7729 C   0  0  0  0  0  0  0  0  0  0  0  0
    3.0868    3.7558    2.9764 C   0  0  0  0  0  0  0  0  0  0  0  0
    1.4548    4.7796    1.6770 F   0  0  0  0  0  0  0  0  0  0  0  0
    5.6000    2.0825    3.2215 C   0  0  0  0  0  0  0  0  0  0  0  0
    4.8780    1.5431    1.7333 S   0  0  0  0  0  0  0  0  0  0  0  0
    5.2264    3.6921    6.5789 C   0  0  0  0  0  0  0  0  0  0  0  0
    6.2176    3.8736    7.4738 C   0  0  0  0  0  0  0  0  0  0  0  0
    7.7463    3.2488    6.9546 S   0  0  0  0  0  0  0  0  0  0  0  0
   -8.4020   -4.1563   12.7382 H   0  0  0  0  0  0  0  0  0  0  0  0
   -6.1646   -3.1093   11.9164 H   0  0  0  0  0  0  0  0  0  0  0  0
   -3.4790   -3.1007    8.3203 H   0  0  0  0  0  0  0  0  0  0  0  0
   -1.3920   -2.2531    9.2973 H   0  0  0  0  0  0  0  0  0  0  0  0
   -1.4966    0.7930   13.2638 H   0  0  0  0  0  0  0  0  0  0  0  0
   -1.7120   -0.9570   13.5270 H   0  0  0  0  0  0  0  0  0  0  0  0
    0.1670   -0.0580   14.9224 H   0  0  0  0  0  0  0  0  0  0  0  0
    0.7600   -1.2262   13.7335 H   0  0  0  0  0  0  0  0  0  0  0  0
    0.9801    0.5030   13.4564 H   0  0  0  0  0  0  0  0  0  0  0  0
   -5.6992   -0.7920   11.1640 H   0  0  0  0  0  0  0  0  0  0  0  0
   -9.7990   -5.7292    8.2250 H   0  0  0  0  0  0  0  0  0  0  0  0
  -11.8645   -6.4401    7.1008 H   0  0  0  0  0  0  0  0  0  0  0  0
  -12.4379   -4.4474    3.3176 H   0  0  0  0  0  0  0  0  0  0  0  0
  -13.9370   -3.5214    3.5880 H   0  0  0  0  0  0  0  0  0  0  0  0
  -14.1537   -5.0400    1.6014 H   0  0  0  0  0  0  0  0  0  0  0  0
  -15.2782   -5.5086    2.8845 H   0  0  0  0  0  0  0  0  0  0  0  0
  -13.7935   -6.4294    2.6326 H   0  0  0  0  0  0  0  0  0  0  0  0
  -10.1204   -1.9088    6.3131 H   0  0  0  0  0  0  0  0  0  0  0  0
   -8.3056   -2.8886    5.0970 H   0  0  0  0  0  0  0  0  0  0  0  0
   -3.9722   -1.2513    3.9245 H   0  0  0  0  0  0  0  0  0  0  0  0
   -2.9700    0.7602    3.2681 H   0  0  0  0  0  0  0  0  0  0  0  0
   -0.6232    0.9181    3.9477 H   0  0  0  0  0  0  0  0  0  0  0  0
    3.7981   -1.0237    2.6530 H   0  0  0  0  0  0  0  0  0  0  0  0
    2.8356   -1.2403    1.1831 H   0  0  0  0  0  0  0  0  0  0  0  0
    2.3134   -2.6028    3.8886 H   0  0  0  0  0  0  0  0  0  0  0  0
    3.0427   -3.3905    2.4823 H   0  0  0  0  0  0  0  0  0  0  0  0
    1.3587   -2.8678    2.4274 H   0  0  0  0  0  0  0  0  0  0  0  0
   -1.7749   -1.6181   -0.0862 H   0  0  0  0  0  0  0  0  0  0  0  0
   -8.1257    0.5423   -1.3723 H   0  0  0  0  0  0  0  0  0  0  0  0
  -10.4898    0.2686   -1.9919 H   0  0  0  0  0  0  0  0  0  0  0  0
  -12.6877   -2.2778    0.7963 H   0  0  0  0  0  0  0  0  0  0  0  0
  -13.1128   -3.6400   -0.2730 H   0  0  0  0  0  0  0  0  0  0  0  0
  -14.7623   -1.0832    0.0930 H   0  0  0  0  0  0  0  0  0  0  0  0
  -15.1635   -2.6601    0.7847 H   0  0  0  0  0  0  0  0  0  0  0  0
  -15.1876   -2.4281   -0.9681 H   0  0  0  0  0  0  0  0  0  0  0  0
   -8.2483   -3.2585    0.6003 H   0  0  0  0  0  0  0  0  0  0  0  0
   -6.5291   -0.8212   -2.7462 H   0  0  0  0  0  0  0  0  0  0  0  0
   -3.3320    1.9586   -4.2233 H   0  0  0  0  0  0  0  0  0  0  0  0
   -0.9912    2.4178   -4.3881 H   0  0  0  0  0  0  0  0  0  0  0  0
   -0.4670    4.7723   -3.8838 H   0  0  0  0  0  0  0  0  0  0  0  0
   -0.9266    8.2860   -7.4191 H   0  0  0  0  0  0  0  0  0  0  0  0
    0.4920    7.2065   -7.4061 H   0  0  0  0  0  0  0  0  0  0  0  0
    1.6787    8.7913   -5.8877 H   0  0  0  0  0  0  0  0  0  0  0  0
    0.2706    9.8556   -5.8831 H   0  0  0  0  0  0  0  0  0  0  0  0
    1.1891    9.6158   -7.3746 H   0  0  0  0  0  0  0  0  0  0  0  0
   -2.2057    3.5751   -8.3266 H   0  0  0  0  0  0  0  0  0  0  0  0
   -4.5430   -2.8755   -7.6298 H   0  0  0  0  0  0  0  0  0  0  0  0
   -4.7108   -5.2952   -7.7489 H   0  0  0  0  0  0  0  0  0  0  0  0
   -4.9847   -7.4014   -7.5918 H   0  0  0  0  0  0  0  0  0  0  0  0
   -4.2602   -8.9414   -8.0727 H   0  0  0  0  0  0  0  0  0  0  0  0
   -3.6186   -8.0106  -10.2758 H   0  0  0  0  0  0  0  0  0  0  0  0
   -4.2894   -6.4378   -9.8433 H   0  0  0  0  0  0  0  0  0  0  0  0
   -5.3608   -7.8306  -10.0376 H   0  0  0  0  0  0  0  0  0  0  0  0
   -0.3102   -3.1806   -7.0680 H   0  0  0  0  0  0  0  0  0  0  0  0
   -0.3379   -2.1021   -9.2009 H   0  0  0  0  0  0  0  0  0  0  0  0
    1.3108    2.1600  -11.0854 H   0  0  0  0  0  0  0  0  0  0  0  0
    3.1587    3.5438  -12.0081 H   0  0  0  0  0  0  0  0  0  0  0  0
    6.0458    0.6175  -10.8631 H   0  0  0  0  0  0  0  0  0  0  0  0
    4.7825   -2.4514   -8.2288 H   0  0  0  0  0  0  0  0  0  0  0  0
    6.7597   -0.2030   -8.8692 H   0  0  0  0  0  0  0  0  0  0  0  0
    4.6075   -1.6333   -6.2093 H   0  0  0  0  0  0  0  0  0  0  0  0
    3.6148   -2.4912   -1.9715 H   0  0  0  0  0  0  0  0  0  0  0  0
    1.2075   -2.7357   -2.0768 H   0  0  0  0  0  0  0  0  0  0  0  0
   -2.4051   -2.7236   -2.8039 H   0  0  0  0  0  0  0  0  0  0  0  0
   -0.8662   -2.7590   -1.9220 H   0  0  0  0  0  0  0  0  0  0  0  0
   -1.3558   -5.0144   -2.8951 H   0  0  0  0  0  0  0  0  0  0  0  0
   -1.5354   -4.2904   -4.4972 H   0  0  0  0  0  0  0  0  0  0  0  0
    0.0474   -4.3204   -3.7155 H   0  0  0  0  0  0  0  0  0  0  0  0
    3.4960    0.2358   -5.2744 H   0  0  0  0  0  0  0  0  0  0  0  0
   10.1029   -1.6453   -4.4222 H   0  0  0  0  0  0  0  0  0  0  0  0
   12.4504   -1.0501   -4.3633 H   0  0  0  0  0  0  0  0  0  0  0  0
   15.8081    0.3939   -3.9237 H   0  0  0  0  0  0  0  0  0  0  0  0
   14.4276   -0.3574   -4.7345 H   0  0  0  0  0  0  0  0  0  0  0  0
   15.5251   -1.9913   -3.1791 H   0  0  0  0  0  0  0  0  0  0  0  0
   13.9148   -1.5990   -2.5639 H   0  0  0  0  0  0  0  0  0  0  0  0
   15.3389   -0.8518   -1.8412 H   0  0  0  0  0  0  0  0  0  0  0  0
    9.1143    1.9850   -2.3762 H   0  0  0  0  0  0  0  0  0  0  0  0
    8.5412    0.4930   -0.6723 H   0  0  0  0  0  0  0  0  0  0  0  0
    8.4211    0.7630    1.9402 H   0  0  0  0  0  0  0  0  0  0  0  0
    9.5468    2.8639    2.5657 H   0  0  0  0  0  0  0  0  0  0  0  0
   11.9481    2.5207    2.5957 H   0  0  0  0  0  0  0  0  0  0  0  0
   15.5073    1.9960    3.3986 H   0  0  0  0  0  0  0  0  0  0  0  0
   14.0279    2.1074    2.4361 H   0  0  0  0  0  0  0  0  0  0  0  0
   14.8529    4.3954    3.0509 H   0  0  0  0  0  0  0  0  0  0  0  0
   14.8274    3.9490    4.7617 H   0  0  0  0  0  0  0  0  0  0  0  0
   13.3148    4.0884    3.8654 H   0  0  0  0  0  0  0  0  0  0  0  0
    9.2002    0.8854    6.3495 H   0  0  0  0  0  0  0  0  0  0  0  0
    2.8182    2.1080    5.9050 H   0  0  0  0  0  0  0  0  0  0  0  0
    0.4507    2.6123    5.5066 H   0  0  0  0  0  0  0  0  0  0  0  0
   -0.7865    5.1760    1.5085 H   0  0  0  0  0  0  0  0  0  0  0  0
   -2.3977    4.4959    1.7864 H   0  0  0  0  0  0  0  0  0  0  0  0
    0.0118    2.8402    0.8623 H   0  0  0  0  0  0  0  0  0  0  0  0
   -1.6446    2.2639    1.0480 H   0  0  0  0  0  0  0  0  0  0  0  0
   -1.2529    3.4493   -0.2041 H   0  0  0  0  0  0  0  0  0  0  0  0
    3.8022    4.1158    2.2533 H   0  0  0  0  0  0  0  0  0  0  0  0
    4.2162    4.0286    6.7251 H   0  0  0  0  0  0  0  0  0  0  0  0
    6.1607    4.3457    8.4352 H   0  0  0  0  0  0  0  0  0  0  0  0
  1  2  2  0  0  0  0
  2  3  1  0  0  0  0
  3  4  2  0  0  0  0
  4  5  1  0  0  0  0
  5  6  2  0  0  0  0
  6  7  1  0  0  0  0
  7  8  2  0  0  0  0
  8  9  1  0  0  0  0
  9 10  1  0  0  0  0
 10 11  1  0  0  0  0
  8 12  1  0  0  0  0
 12 13  1  0  0  0  0
 12 14  2  0  0  0  0
  4 15  1  0  0  0  0
 15 16  2  0  0  0  0
 16 17  1  0  0  0  0
 17 18  1  0  0  0  0
 18 19  2  0  0  0  0
 19 20  1  0  0  0  0
 20 21  2  0  0  0  0
 21 22  1  0  0  0  0
 22 23  1  0  0  0  0
 23 24  1  0  0  0  0
 21 25  1  0  0  0  0
 25 26  2  0  0  0  0
 25 27  1  0  0  0  0
 17 28  2  0  0  0  0
 28 29  1  0  0  0  0
 16 30  1  0  0  0  0
 30 31  2  0  0  0  0
 31 32  1  0  0  0  0
 31 33  1  0  0  0  0
 33 34  2  0  0  0  0
 34 35  1  0  0  0  0
 35 36  2  0  0  0  0
 36 37  1  0  0  0  0
 37 38  2  0  0  0  0
 38 39  1  0  0  0  0
 39 40  2  0  0  0  0
 40 41  1  0  0  0  0
 41 42  1  0  0  0  0
 42 43  1  0  0  0  0
 40 44  1  0  0  0  0
 44 45  1  0  0  0  0
 44 46  2  0  0  0  0
 36 47  1  0  0  0  0
 47 48  2  0  0  0  0
 48 49  1  0  0  0  0
 49 50  1  0  0  0  0
 50 51  2  0  0  0  0
 51 52  1  0  0  0  0
 52 53  2  0  0  0  0
 53 54  1  0  0  0  0
 54 55  1  0  0  0  0
 55 56  1  0  0  0  0
 53 57  1  0  0  0  0
 57 58  2  0  0  0  0
 57 59  1  0  0  0  0
 49 60  2  0  0  0  0
 60 61  1  0  0  0  0
 48 62  1  0  0  0  0
 62 63  2  0  0  0  0
 63 64  1  0  0  0  0
 63 65  1  0  0  0  0
 65 66  2  0  0  0  0
 66 67  1  0  0  0  0
 67 68  2  0  0  0  0
 68 69  1  0  0  0  0
 69 70  2  0  0  0  0
 70 71  1  0  0  0  0
 71 72  2  0  0  0  0
 72 73  1  0  0  0  0
 73 74  1  0  0  0  0
 74 75  1  0  0  0  0
 72 76  1  0  0  0  0
 76 77  1  0  0  0  0
 76 78  2  0  0  0  0
 68 79  1  0  0  0  0
 79 80  2  0  0  0  0
 80 81  1  0  0  0  0
 81 82  1  0  0  0  0
 82 83  2  0  0  0  0
 83 84  1  0  0  0  0
 84 85  2  0  0  0  0
 85 86  1  0  0  0  0
 86 87  1  0  0  0  0
 87 88  1  0  0  0  0
 85 89  1  0  0  0  0
 89 90  2  0  0  0  0
 89 91  1  0  0  0  0
 81 92  2  0  0  0  0
 92 93  1  0  0  0  0
 80 94  1  0  0  0  0
 94 95  2  0  0  0  0
 95 96  1  0  0  0  0
 95 97  1  0  0  0  0
 97 98  1  0  0  0  0
 98 99  1  0  0  0  0
 99100  2  0  0  0  0
100101  1  0  0  0  0
101102  1  0  0  0  0
102103  2  0  0  0  0
103104  1  0  0  0  0
104105  1  0  0  0  0
104106  2  0  0  0  0
 99107  1  0  0  0  0
107108  2  0  0  0  0
108109  1  0  0  0  0
109110  2  0  0  0  0
110111  1  0  0  0  0
111112  2  0  0  0  0
112113  1  0  0  0  0
113114  2  0  0  0  0
114115  1  0  0  0  0
115116  2  0  0  0  0
116117  1  0  0  0  0
117118  1  0  0  0  0
118119  1  0  0  0  0
116120  1  0  0  0  0
120121  1  0  0  0  0
120122  2  0  0  0  0
112123  1  0  0  0  0
123124  2  0  0  0  0
124125  1  0  0  0  0
125126  1  0  0  0  0
126127  2  0  0  0  0
127128  1  0  0  0  0
128129  2  0  0  0  0
129130  1  0  0  0  0
130131  1  0  0  0  0
131132  1  0  0  0  0
129133  1  0  0  0  0
133134  2  0  0  0  0
133135  1  0  0  0  0
125136  2  0  0  0  0
136137  1  0  0  0  0
124138  1  0  0  0  0
138139  2  0  0  0  0
139140  1  0  0  0  0
139141  1  0  0  0  0
141142  2  0  0  0  0
142143  1  0  0  0  0
143144  2  0  0  0  0
144145  1  0  0  0  0
145146  2  0  0  0  0
146147  1  0  0  0  0
147148  2  0  0  0  0
148149  1  0  0  0  0
149150  1  0  0  0  0
150151  1  0  0  0  0
148152  1  0  0  0  0
152153  1  0  0  0  0
152154  2  0  0  0  0
144155  1  0  0  0  0
155156  2  0  0  0  0
156157  1  0  0  0  0
157158  1  0  0  0  0
158159  2  0  0  0  0
159160  1  0  0  0  0
160161  2  0  0  0  0
161162  1  0  0  0  0
162163  1  0  0  0  0
163164  1  0  0  0  0
161165  1  0  0  0  0
165166  2  0  0  0  0
165167  1  0  0  0  0
157168  2  0  0  0  0
168169  1  0  0  0  0
156170  1  0  0  0  0
170171  2  0  0  0  0
171172  1  0  0  0  0
 29  1  1  0  0  0  0
 61 33  1  0  0  0  0
 93 65  1  0  0  0  0
101 97  2  0  0  0  0
137109  1  0  0  0  0
169141  1  0  0  0  0
 28  3  1  0  0  0  0
 60 35  1  0  0  0  0
 92 67  1  0  0  0  0
106100  1  0  0  0  0
136111  1  0  0  0  0
168143  1  0  0  0  0
 14  5  1  0  0  0  0
 32 15  1  0  0  0  0
 46 37  1  0  0  0  0
 64 47  1  0  0  0  0
 78 69  1  0  0  0  0
 96 79  1  0  0  0  0
122113  1  0  0  0  0
140123  1  0  0  0  0
154145  1  0  0  0  0
172155  1  0  0  0  0
 26 18  1  0  0  0  0
 58 50  1  0  0  0  0
 90 82  1  0  0  0  0
134126  1  0  0  0  0
166158  1  0  0  0  0
  1173  1  0  0  0  0
  2174  1  0  0  0  0
  6175  1  0  0  0  0
  7176  1  0  0  0  0
 10177  1  0  0  0  0
 10178  1  0  0  0  0
 11179  1  0  0  0  0
 11180  1  0  0  0  0
 11181  1  0  0  0  0
 14182  1  0  0  0  0
 19183  1  0  0  0  0
 20184  1  0  0  0  0
 23185  1  0  0  0  0
 23186  1  0  0  0  0
 24187  1  0  0  0  0
 24188  1  0  0  0  0
 24189  1  0  0  0  0
 26190  1  0  0  0  0
 30191  1  0  0  0  0
 34192  1  0  0  0  0
 38193  1  0  0  0  0
 39194  1  0  0  0  0
 42195  1  0  0  0  0
 42196  1  0  0  0  0
 43197  1  0  0  0  0
 43198  1  0  0  0  0
 43199  1  0  0  0  0
 46200  1  0  0  0  0
 51201  1  0  0  0  0
 52202  1  0  0  0  0
 55203  1  0  0  0  0
 55204  1  0  0  0  0
 56205  1  0  0  0  0
 56206  1  0  0  0  0
 56207  1  0  0  0  0
 58208  1  0  0  0  0
 62209  1  0  0  0  0
 66210  1  0  0  0  0
 70211  1  0  0  0  0
 71212  1  0  0  0  0
 74213  1  0  0  0  0
 74214  1  0  0  0  0
 75215  1  0  0  0  0
 75216  1  0  0  0  0
 75217  1  0  0  0  0
 78218  1  0  0  0  0
 83219  1  0  0  0  0
 84220  1  0  0  0  0
 87221  1  0  0  0  0
 87222  1  0  0  0  0
 88223  1  0  0  0  0
 88224  1  0  0  0  0
 88225  1  0  0  0  0
 90226  1  0  0  0  0
 94227  1  0  0  0  0
102228  1  0  0  0  0
103229  1  0  0  0  0
106230  1  0  0  0  0
107231  1  0  0  0  0
108232  1  0  0  0  0
110233  1  0  0  0  0
114234  1  0  0  0  0
115235  1  0  0  0  0
118236  1  0  0  0  0
118237  1  0  0  0  0
119238  1  0  0  0  0
119239  1  0  0  0  0
119240  1  0  0  0  0
122241  1  0  0  0  0
127242  1  0  0  0  0
128243  1  0  0  0  0
131244  1  0  0  0  0
131245  1  0  0  0  0
132246  1  0  0  0  0
132247  1  0  0  0  0
132248  1  0  0  0  0
134249  1  0  0  0  0
138250  1  0  0  0  0
142251  1  0  0  0  0
146252  1  0  0  0  0
147253  1  0  0  0  0
150254  1  0  0  0  0
150255  1  0  0  0  0
151256  1  0  0  0  0
151257  1  0  0  0  0
151258  1  0  0  0  0
154259  1  0  0  0  0
159260  1  0  0  0  0
160261  1  0  0  0  0
163262  1  0  0  0  0
163263  1  0  0  0  0
164264  1  0  0  0  0
164265  1  0  0  0  0
164266  1  0  0  0  0
166267  1  0  0  0  0
170268  1  0  0  0  0
171269  1  0  0  0  0
M  END
