236

C          4.82410       -0.61100       13.48950
S          3.39860       -1.16890       12.74360
C          3.88970       -0.59470       11.18020
C          5.14600        0.01510       11.26280
C          5.67830        0.00140       12.59630
C          6.94590        0.57490       12.85990
C          7.65140        1.13380       11.83970
C          7.11180        1.13520       10.53550
F          7.85220        1.70110        9.55880
C          5.89800        0.60020       10.22380
C          3.08410       -0.75890       10.02830
C          1.89650       -1.40530        9.99080
C          1.11550       -1.57020        8.81520
C         -0.04550       -2.28160        8.68850
C         -0.57590       -2.29550        7.37490
C         -1.72870       -2.95640        6.91060
C         -2.64340       -3.63940        7.83160
C         -3.08100       -4.93960        7.58610
C         -3.96460       -5.55610        8.44550
C         -4.44590       -4.90780        9.58130
S         -5.54460       -5.81330       10.63090
C         -6.80070       -4.57650       11.12810
C         -7.49250       -3.95730        9.93050
C         -3.98190       -3.61910        9.82660
F         -4.37480       -2.93640       10.92560
C         -3.10790       -2.98440        8.96830
C         -1.96740       -2.90800        5.54460
C         -1.12610       -2.20360        4.65090
C         -0.01700       -1.48060        5.11880
C          0.76820       -0.65570        4.19120
C          1.26410       -1.17760        2.99580
C          1.92330       -0.37050        2.09520
C          2.12080        0.98830        2.34580
S          3.01110        1.89620        1.12430
C          2.35620        3.60940        1.25850
C          2.55770        4.30850       -0.07220
C          1.65240        1.48810        3.55700
C          0.98010        0.69160        4.46380
F          1.83420        2.78680        3.89380
C          0.23780       -1.55830        6.47610
S          1.60300       -0.84550        7.29000
C         -1.60390       -2.26590        3.32280
C         -2.76050       -2.97260        3.18230
S         -3.33940       -3.60180        4.70430
C         -3.40400       -3.06080        1.90340
C         -2.70230       -3.07020        0.73510
C         -3.47370       -2.69800       -0.38970
C         -2.98030       -2.41900       -1.67480
C         -1.60520       -2.79320       -2.03080
C         -0.70270       -1.86260       -2.53700
C          0.60310       -2.22690       -2.79940
C          1.04470       -3.52140       -2.57260
S          2.76730       -3.92980       -2.80580
C          2.68380       -4.76910       -4.42620
C          2.37440       -3.79710       -5.54640
C          0.12890       -4.45340       -2.09990
F          0.50930       -5.72820       -1.89620
C         -1.17890       -4.10430       -1.82700
C         -3.82530       -1.70180       -2.50140
C         -5.16000       -1.38210       -2.14840
C         -5.69980       -1.80760       -0.92110
C         -7.10120       -1.53800       -0.58680
C         -8.10950       -1.89390       -1.47880
C         -9.43970       -1.67310       -1.18040
C         -9.80760       -1.08230        0.02290
S        -11.46190       -0.72840        0.51860
C        -12.48200       -1.79830       -0.55390
C        -12.30320       -3.27010       -0.23350
C         -8.78400       -0.70680        0.89500
C         -7.45490       -0.92790        0.61430
F         -9.10800       -0.10510        2.05650
C         -4.81320       -2.40470       -0.03770
S         -5.10780       -2.75390        1.65000
C         -5.73480       -0.45780       -3.05570
C         -4.89500       -0.07400       -4.06200
S         -3.37350       -0.95980       -4.01380
C         -5.02180        1.07110       -4.89780
S         -6.06080        2.35870       -4.36430
C         -5.40620        3.47560       -5.50320
C         -4.48210        2.85300       -6.32950
C         -4.24770        1.48050       -5.98340
C         -3.29930        0.73430       -6.71840
C         -2.61230        1.32610       -7.73550
C         -2.87260        2.67090       -8.07150
F         -2.17660        3.20510       -9.09810
C         -3.78880        3.43410       -7.41740
C         -5.61370        4.91210       -5.35560
C         -4.59740        5.67560       -4.94850
C         -3.32070        5.05570       -4.58990
C         -3.05520        4.27670       -3.51360
C         -1.77940        3.64010       -3.55840
C         -1.19750        2.75150       -2.63900
C         -1.85830        2.29590       -1.40950
C         -1.14650        2.21330       -0.21440
C         -1.70710        1.68070        0.92900
C         -3.02430        1.23800        0.93150
S         -3.85220        0.50770        2.30270
C         -2.80000        0.90770        3.73760
C         -2.84710        2.38000        4.09640
C         -3.74020        1.36000       -0.26090
F         -5.03300        0.97610       -0.28580
C         -3.18140        1.85690       -1.41660
C          0.05610        2.24660       -2.97300
C          0.68020        2.48090       -4.22120
C          0.08450        3.34680       -5.15070
C          0.59510        3.47990       -6.51860
C          0.76520        4.71220       -7.13820
C          1.18550        4.80040       -8.45230
C          1.44500        3.65630       -9.19690
S          1.97590        3.60660      -10.87370
C          2.16260        5.35720      -11.35120
C          3.44680        5.96980      -10.82290
C          1.25690        2.42560       -8.56470
C          0.84610        2.32330       -7.25740
F          1.47900        1.28940       -9.25910
C         -1.09010        3.96670       -4.75210
S         -1.97600        5.12200       -5.70730
C          1.89370        1.75780       -4.35630
C          2.19780        0.99670       -3.26790
S          1.00320        1.15060       -1.99890
C          3.29840        0.09600       -3.10930
C          4.05630       -0.44360       -4.10590
C          5.02540       -1.36850       -3.64120
C          5.92380       -2.13100       -4.40330
C          5.98720       -1.98940       -5.86290
C          6.13490       -0.73710       -6.45330
C          6.17010       -0.59240       -7.82640
C          6.04070       -1.69570       -8.66330
S          6.06130       -1.64690      -10.42280
C          5.74340        0.10730      -10.82430
C          4.33930        0.54130      -10.45520
C          5.91370       -2.94710       -8.05680
F          5.79700       -4.04290       -8.83320
C          5.89060       -3.10660       -6.68980
C          6.72660       -3.02240       -3.70700
C          6.69310       -3.15550       -2.29810
C          5.79590       -2.39320       -1.53900
C          5.72980       -2.52130       -0.07640
C          6.86220       -2.32630        0.71040
C          6.79230       -2.45200        2.08270
C          5.59980       -2.79410        2.71140
S          5.60660       -3.02530        4.47140
C          4.23000       -1.94890        5.01330
C          4.52520       -0.48830        4.74030
C          4.48400       -3.01030        1.91050
C          4.52910       -2.85640        0.53980
F          3.31590       -3.40190        2.46350
C          4.96770       -1.52860       -2.23540
S          3.74570       -0.50960       -1.52840
C          7.62000       -4.13940       -1.84110
C          8.32670       -4.69940       -2.84290
S          7.91890       -4.08570       -4.40910
H          4.96870       -0.75860       14.54100
H          7.33380        0.55880       13.86640
H          8.62070        1.58020       11.99510
H          5.53320        0.62660        9.21000
H          3.47180       -0.33100        9.11270
H          1.49600       -1.85080       10.89230
H         -0.48870       -2.81370        9.51090
H         -2.71710       -5.47270        6.72170
H         -4.30260       -6.56190        8.25140
H         -7.49910       -5.16030       11.72780
H         -6.33060       -3.82740       11.76130
H         -7.93100       -4.72880        9.30100
H         -6.79080       -3.38070        9.33050
H         -8.28290       -3.29050       10.26910
H         -2.80390       -1.97290        9.19090
H          1.14340       -2.22790        2.78320
H          2.29920       -0.77410        1.16760
H          2.88860        4.12230        2.05790
H          1.29910        3.53820        1.51000
H          2.16410        5.32140       -0.01960
H          3.61570        4.35710       -0.31920
H          2.04550        3.77480       -0.87020
H          0.62210        1.13770        5.37910
H         -1.13490       -1.76430        2.49670
H         -1.64600       -3.26260        0.68620
H         -1.01510       -0.84180       -2.69220
H          1.30740       -1.50510       -3.17830
H          1.94040       -5.56220       -4.35220
H          3.67120       -5.21360       -4.54650
H          2.39640       -4.31490       -6.50320
H          3.11230       -2.99730       -5.56720
H          1.38750       -3.35650       -5.41210
H         -1.85830       -4.85550       -1.45430
H         -7.84910       -2.36720       -2.41410
H        -10.18950       -1.96110       -1.89940
H        -12.25990       -1.56820       -1.59520
H        -13.50040       -1.47510       -0.33870
H        -11.27450       -3.58360       -0.39870
H        -12.55570       -3.45980        0.80700
H        -12.95580       -3.86930       -0.86560
H         -6.70630       -0.59420        1.31410
H         -6.70680       -0.02110       -2.90980
H         -3.13260       -0.30360       -6.47860
H         -1.88100        0.78480       -8.31420
H         -3.98730        4.45090       -7.71540
H         -6.59300        5.32530       -5.55160
H         -4.68410        6.75090       -4.88360
H         -3.75210        4.15360       -2.70420
H         -0.13470        2.58260       -0.17150
H         -1.10360        1.60750        1.81980
H         -1.78770        0.55880        3.53780
H         -3.22190        0.29800        4.53710
H         -2.47540        2.99440        3.27890
H         -3.86860        2.68210        4.31540
H         -2.23280        2.56440        4.97560
H         -3.77470        1.87840       -2.31650
H          0.58320        5.61980       -6.58330
H          1.29910        5.77740       -8.89190
H          2.17100        5.32780      -12.44090
H          1.27420        5.89670      -11.02630
H          3.48000        5.93960       -9.73610
H          3.52210        7.00660      -11.14500
H          4.30660        5.42470      -11.20550
H          0.68850        1.34610       -6.82770
H          2.52610        1.82680       -5.22220
H          3.90120       -0.22240       -5.14640
H          6.25020        0.13480       -5.82650
H          6.30710        0.39240       -8.24280
H          5.89060        0.14630      -11.90360
H          6.51080        0.71800      -10.34920
H          3.60350       -0.08040      -10.95810
H          4.17410        1.57360      -10.75590
H          4.17040        0.46210       -9.38400
H          5.77370       -4.09700       -6.27970
H          7.79630       -2.05520        0.24190
H          7.66730       -2.29330        2.69360
H          4.15420       -2.14260        6.08300
H          3.31280       -2.27480        4.52830
H          5.47080       -0.20030        5.19470
H          4.58300       -0.29950        3.66940
H          3.73210        0.12830        5.15860
H          3.64430       -3.04980       -0.04740
H          7.72900       -4.41000       -0.80660
H          9.07980       -5.46000       -2.77430
