108

C          2.55270        2.22130        1.73760
S          2.67470        0.50340        1.79040
C          1.90670        2.62390        0.61360
C          1.50810        3.89360       -0.01730
O          1.63730        5.03340        0.35120
N          0.89360        3.51190       -1.20630
C          0.40930        4.45350       -2.18410
C          0.81540        2.13500       -1.38770
O          0.26890        1.61400       -2.33630
C          1.48670        1.55430       -0.22670
C          1.82140        0.30580        0.26450
C          1.53910       -0.99280       -0.21460
C          0.82360       -1.22890       -1.35050
C          0.43230       -2.49920       -1.79570
S          0.72210       -3.92940       -0.86500
C          0.02310       -4.97690       -2.04770
C         -0.44620       -4.21880       -3.14820
C         -0.22560       -2.81920       -3.00040
C         -0.64700       -1.92090       -3.99750
C         -1.26130       -2.40360       -5.12010
C         -1.45690       -3.78640       -5.25810
F         -2.06300       -4.23040       -6.37850
C         -1.07080       -4.69650       -4.31210
C         -0.16240       -6.36470       -1.88220
C          0.21880       -7.20460       -0.87450
C          1.09690       -6.95860        0.20940
S          0.74980       -7.67140        1.75710
C          1.98970       -6.77140        2.55570
C          2.74100       -6.04040        1.62590
C          2.26240       -6.18470        0.28930
C          2.99930       -5.63380       -0.77980
C          4.12270       -4.90180       -0.51910
C          4.53870       -4.71650        0.81150
F          5.64400       -3.97520        1.02450
C          3.89690       -5.27580        1.87800
C          2.18980       -6.82200        3.97220
C          2.33680       -5.72160        4.74660
C          1.99480       -4.39170        4.37090
S          0.93450       -4.01910        3.01730
C          2.25580       -3.22800        5.06000
C          3.03960       -2.82680        6.23720
O          3.71420       -3.48430        6.99000
N          2.85010       -1.44970        6.33430
C          3.46540       -0.64530        7.36030
C          2.02680       -0.91980        5.34550
O          1.75220        0.24940        5.22580
C          1.63100       -2.07770        4.53360
C          0.83360       -2.31690        3.43710
C          0.04720       -1.40450        2.69890
C         -0.71590       -1.76970        1.64020
C         -1.43070       -0.88150        0.80650
S         -1.40920        0.85790        1.00860
C         -2.17010       -1.19660       -0.31360
C         -2.59580       -2.41880       -1.00510
O         -2.37260       -3.58110       -0.75140
N         -3.35650       -1.96990       -2.07380
C         -4.02730       -2.85270       -2.99440
C         -3.44570       -0.57660       -2.16670
O         -4.03420        0.00620       -3.03740
C         -2.68680       -0.08120       -1.00630
C         -2.36790        1.13400       -0.44110
C         -2.70420        2.44100       -0.87280
C         -2.27910        3.54730       -0.21740
C         -2.55330        4.89110       -0.58350
S         -1.82210        6.18060        0.35050
C         -3.31470        5.44470       -1.59030
C         -4.17520        4.96860       -2.68210
O         -4.45850        3.84930       -3.03120
N         -4.64390        6.12530       -3.29400
C         -5.53950        6.10630       -4.42390
C         -4.17730        7.29970       -2.71990
O         -4.46800        8.40440       -3.11090
C         -3.31350        6.86260       -1.60930
C         -2.54690        7.43810       -0.62100
C         -2.26970        8.80740       -0.28780
C         -2.76070        9.85970       -0.94110
H          2.96040        2.81030        2.53420
H         -0.54990        4.11140       -2.57190
H          1.11620        4.53660       -3.01250
H          0.30740        5.42290       -1.69950
H          1.90000       -1.82330        0.37790
H          0.51470       -0.38790       -1.95530
H         -0.48970       -0.86130       -3.87190
H         -1.60210       -1.74620       -5.90380
H         -1.24910       -5.74710       -4.47330
H         -0.79200       -6.80980       -2.64180
H         -0.26550       -8.17350       -0.85350
H          2.68800       -5.82520       -1.79440
H          4.71260       -4.46910       -1.31110
H          4.27620       -5.15280        2.87970
H          2.22860       -7.80000        4.43330
H          2.65570       -5.82640        5.77520
H          4.53060       -0.87000        7.41290
H          3.01250       -0.85530        8.33090
H          3.31100        0.40060        7.10120
H          0.09680       -0.37100        3.01640
H         -0.78430       -2.81380        1.35860
H         -5.08480       -2.93980       -2.73580
H         -3.55660       -3.83210       -2.93210
H         -3.94240       -2.45060       -4.00280
H         -3.31610        2.50980       -1.76340
H         -1.66170        3.42920        0.66670
H         -5.67570        5.06780       -4.72040
H         -6.50050        6.54430       -4.15040
H         -5.11190        6.68100       -5.24580
H         -1.60950        8.94010        0.55980
H         -2.51250       10.86210       -0.63850
H         -3.41820        9.74820       -1.78630
