236

C         -9.36230        7.04070       14.84560
C         -9.76830        7.19630       13.56970
C         -9.03800        6.38370       12.65160
C         -9.21340        6.27050       11.26480
C        -10.16620        7.11580       10.53480
C        -10.15330        8.50140       10.68890
C        -11.01910        9.29510        9.96790
C        -11.94080        8.74280        9.08050
S        -13.02870        9.85450        8.23820
C        -13.10910        9.18190        6.53670
C        -11.73740        9.08170        5.90080
C        -11.96460        7.35650        8.96260
F        -12.86420        6.74580        8.16160
C        -11.08480        6.55110        9.65690
C         -8.41990        5.33930       10.61050
C         -7.45180        4.54520       11.27340
C         -7.25890        4.67590       12.65820
C         -6.24380        3.88560       13.36440
C         -5.31520        4.50100       14.20280
C         -4.33550        3.76210       14.82880
C         -4.24680        2.38080       14.65920
S         -2.95920        1.53770       15.52190
C         -2.50290        0.17040       14.38020
C         -1.06760       -0.23700       14.64790
C         -5.20830        1.77420       13.85630
C         -6.18140        2.50460       13.20550
F         -5.22800        0.43050       13.69050
C         -8.06360        5.59780       13.31280
S         -8.06890        5.90550       15.03080
C         -6.73360        3.72500       10.36630
C         -7.12850        3.86720        9.06900
S         -8.41720        5.03830        8.89230
C         -6.58650        3.19050        7.93200
C         -5.80550        2.07210        7.94150
C         -5.35480        1.67920        6.65640
C         -4.54250        0.58230        6.31850
C         -4.03280       -0.34530        7.33530
C         -4.15570       -1.72300        7.16030
C         -3.70750       -2.59810        8.12630
C         -3.11570       -2.13890        9.29980
S         -2.55970       -3.34100       10.47550
C         -3.22400       -2.68170       12.05040
C         -4.73240       -2.54640       12.01600
C         -2.96290       -0.76340        9.44460
F         -2.35750       -0.24590       10.53820
C         -3.41690        0.12540        8.49160
C         -4.24530        0.42030        4.97300
C         -4.73580        1.28700        3.96620
C         -5.58450        2.35590        4.29820
C         -6.14390        3.21090        3.24350
C         -6.81600        2.63500        2.16600
C         -7.30220        3.41870        1.14120
C         -7.13200        4.79930        1.15200
S         -7.75690        5.74140       -0.21440
C         -6.26640        6.68530       -0.71190
C         -5.13090        5.76370       -1.10550
C         -6.50030        5.36570        2.25450
C         -6.00460        4.59360        3.28650
F         -6.34330        6.70240        2.33790
C         -5.85230        2.54030        5.64400
S         -6.84800        3.80450        6.31420
C         -4.20580        0.97430        2.69120
C         -3.34720       -0.08630        2.70120
S         -3.17180       -0.77960        4.29980
C         -2.60030       -0.58800        1.59190
C         -2.55700       -0.05730        0.33480
C         -1.66190       -0.72720       -0.53340
C         -1.34800       -0.40120       -1.86380
C         -1.93360        0.78020       -2.51070
C         -2.57570        0.69240       -3.74140
C         -3.14420        1.80580       -4.33050
C         -3.08690        3.04910       -3.71100
S         -3.75900        4.54380       -4.36100
C         -5.03300        3.97570       -5.54020
C         -6.19320        3.28920       -4.84520
C         -2.41110        3.12780       -2.49230
F         -2.30740        4.32190       -1.87320
C         -1.84710        2.02590       -1.89100
C         -0.43100       -1.21890       -2.50220
C          0.20500       -2.31490       -1.86530
C         -0.10350       -2.63640       -0.53310
C          0.55320       -3.75030        0.16110
C          1.93910       -3.87680        0.17170
C          2.55790       -4.92830        0.82020
C          1.81050       -5.89370        1.48540
S          2.45270       -7.30370        2.31960
C          4.25810       -7.03470        2.35100
C          4.66610       -5.97230        3.35430
C          0.42100       -5.74940        1.47200
C         -0.20740       -4.70600        0.83240
F         -0.33600       -6.67020        2.10010
C         -1.04370       -1.83520        0.09730
S         -1.55640       -1.98280        1.75790
C          1.13810       -2.95030       -2.72210
C          1.24830       -2.36220       -3.94650
S          0.15810       -0.99960       -4.13050
C          2.16960       -2.69210       -4.98270
C          2.24660       -2.17200       -6.24020
C          3.35770       -2.64270       -6.98360
C          3.71930       -2.31900       -8.30320
C          2.94420       -1.36360       -9.10370
C          2.61330       -0.10420       -8.60530
C          1.88090        0.78050       -9.36640
C          1.45770        0.45680      -10.65530
S          0.56240        1.70080      -11.53610
C         -0.66050        0.77650      -12.53830
C         -1.56760       -0.08290      -11.68110
C          1.82780       -0.78890      -11.15250
F          1.49510       -1.16560      -12.40730
C          2.54400       -1.69260      -10.39400
C          4.85710       -2.93120       -8.80220
C          5.64870       -3.83680       -8.05330
C          5.27010       -4.18530       -6.74400
C          6.04140       -5.15660       -5.96070
C          6.44400       -4.87870       -4.65550
C          7.17820       -5.79710       -3.93710
C          7.52770       -7.03340       -4.47780
S          8.42990       -8.14140       -3.43590
C          9.60860       -8.97220       -4.56440
C         10.50360       -7.98240       -5.28240
C          7.08960       -7.31060       -5.76940
C          6.37610       -6.39060       -6.51000
F          7.34660       -8.50440       -6.34970
C          4.13760       -3.56530       -6.24090
S          3.46510       -3.82790       -4.65300
C          6.80720       -4.23070       -8.75770
C          6.92180       -3.68200      -10.00970
S          5.55740       -2.63780      -10.37310
C          8.00350       -3.89110      -10.90230
S          9.35440       -4.82510      -10.34470
C         10.25390       -4.60650      -11.81270
C          9.49020       -3.87930      -12.74130
C          8.22370       -3.45710      -12.21790
C          7.35010       -2.70640      -13.03240
C          7.70020       -2.40790      -14.31680
C          8.92310       -2.87490      -14.82620
F          9.21670       -2.60200      -16.11460
C          9.81060       -3.59790      -14.08340
C         11.56360       -5.13550      -11.85280
C         12.56030       -4.76500      -12.70250
C         13.87450       -5.28540      -12.73580
S         15.09010       -4.32210      -13.51500
C         16.36350       -5.43170      -13.15700
C         15.86730       -6.52340      -12.43750
C         14.44900       -6.46210      -12.22540
C         13.79720       -7.55150      -11.61060
C         14.52330       -8.60390      -11.13330
C         15.92450       -8.58780      -11.24920
F         16.61240       -9.61820      -10.71260
C         16.60380       -7.59600      -11.89000
C         17.68140       -5.11420      -13.63010
C         18.67220       -5.97030      -13.87980
H         -9.74330        7.52700       15.72240
H        -10.57160        7.84580       13.27290
H         -9.43470        8.95720       11.35280
H        -10.99510       10.36840       10.07540
H        -13.62070        8.22230        6.55850
H        -13.73410        9.90590        6.01370
H        -11.83670        8.76020        4.86610
H        -11.23550       10.04690        5.92060
H        -11.11620        8.35810        6.42570
H        -11.14960        5.48200        9.52740
H         -5.34360        5.57090       14.33770
H         -3.60760        4.24510       15.46150
H         -3.18630       -0.66010       14.55220
H         -2.62000        0.54840       13.36560
H         -0.39790        0.60660       14.49800
H         -0.77920       -1.03570       13.96770
H         -0.95470       -0.59090       15.67010
H         -6.91000        1.98070       12.60570
H         -5.92590        3.08330       10.66570
H         -5.57870        1.52870        8.83960
H         -4.63450       -2.10910        6.27410
H         -3.81700       -3.66270        7.99180
H         -2.73680       -1.73370       12.26300
H         -2.90910       -3.41760       12.78990
H         -5.09020       -2.17630       12.97410
H         -5.03940       -1.84200       11.24480
H         -5.19900       -3.50740       11.81150
H         -3.25040        1.18080        8.64360
H         -6.95910        1.56520        2.13960
H         -7.81630        2.97140        0.30470
H         -5.98980        7.35440        0.10020
H         -6.60810        7.27750       -1.56020
H         -4.78330        5.18580       -0.25070
H         -4.29390        6.34270       -1.48820
H         -5.45130        5.07200       -1.88110
H         -5.50140        5.07970        4.10760
H         -4.43470        1.54190        1.80850
H         -3.14310        0.79060        0.03280
H         -2.64730       -0.26290       -4.23870
H         -3.63250        1.69710       -5.28540
H         -4.56170        3.34090       -6.28920
H         -5.35870        4.89700       -6.02270
H         -5.85880        2.40050       -4.31330
H         -6.94080        2.99390       -5.57870
H         -6.65840        3.96440       -4.13060
H         -1.32680        2.14600       -0.95360
H          2.54660       -3.12910       -0.31560
H          3.63350       -4.98950        0.79530
H          4.65480       -8.00860        2.63790
H          4.59480       -6.81010        1.33980
H          4.22670       -5.00830        3.10740
H          4.33410       -6.25250        4.35110
H          5.74950       -5.86960        3.36410
H         -1.28470       -4.65730        0.84340
H          1.71090       -3.81690       -2.44470
H          1.52140       -1.47570       -6.62180
H          2.94660        0.18620       -7.62080
H          1.62210        1.75220       -8.97500
H         -0.13590        0.19290      -13.29110
H         -1.22250        1.56940      -13.03210
H         -1.00340       -0.87150      -11.18690
H         -2.05810        0.52040      -10.92000
H         -2.32870       -0.54650      -12.30540
H          2.77860       -2.65410      -10.82360
H          6.20610       -3.92370       -4.21380
H          7.50230       -5.57110       -2.93320
H         10.18560       -9.60840       -3.89320
H          9.05390       -9.60020       -5.25790
H         11.02460       -7.34920       -4.56720
H         11.24050       -8.52000       -5.87560
H          9.92460       -7.34640       -5.94940
H          6.05280       -6.66350       -7.50280
H          7.55730       -4.88220       -8.34580
H          6.40060       -2.37780      -12.64440
H          7.04940       -1.83920      -14.96120
H         10.71350       -3.96770      -14.53730
H         11.78900       -5.83250      -11.05810
H         12.39200       -3.93020      -13.36800
H         12.72280       -7.56690      -11.53950
H         14.04980       -9.44900      -10.65990
H         17.67770       -7.62630      -11.95280
H         17.83350       -4.06230      -13.84200
H         19.62210       -5.61900      -14.24270
H         18.56880       -7.03400      -13.76460
