
  xtb     03032200483D
 energy: -402.843928160780 gnorm: 0.000190395687 xtb: 6.4.1 (unknown)
204227  0     0  0            999 V2000
   12.8414    3.6511    6.6163 C   0  0  0  0  0  0  0  0  0  0  0  0
   12.3835    4.0711    7.8134 C   0  0  0  0  0  0  0  0  0  0  0  0
   10.9779    3.8923    7.9591 C   0  0  0  0  0  0  0  0  0  0  0  0
   10.1626    4.2758    9.0363 C   0  0  0  0  0  0  0  0  0  0  0  0
   10.7319    4.7818   10.2734 C   0  0  0  0  0  0  0  0  0  0  0  0
   10.1911    6.2671   10.9961 S   0  0  0  0  0  0  0  0  0  0  0  0
   11.2835    6.1069   12.3292 C   0  0  0  0  0  0  0  0  0  0  0  0
   11.2981    7.1053   13.4333 C   0  0  0  0  0  0  0  0  0  0  0  0
   10.1408    6.8605   14.4044 C   0  0  0  0  0  0  0  0  0  0  0  0
   12.0090    4.9591   12.2126 C   0  0  0  0  0  0  0  0  0  0  0  0
   13.1874    4.4488   13.3513 Cl  0  0  0  0  0  0  0  0  0  0  0  0
   11.7039    4.2080   11.0457 C   0  0  0  0  0  0  0  0  0  0  0  0
   12.4355    2.6930   10.7049 Cl  0  0  0  0  0  0  0  0  0  0  0  0
    8.7933    4.1458    8.8593 C   0  0  0  0  0  0  0  0  0  0  0  0
    8.2062    3.5735    7.7038 C   0  0  0  0  0  0  0  0  0  0  0  0
    9.0287    3.0991    6.6645 C   0  0  0  0  0  0  0  0  0  0  0  0
    8.5036    2.4298    5.4871 C   0  0  0  0  0  0  0  0  0  0  0  0
    7.2196    3.0923    4.5115 S   0  0  0  0  0  0  0  0  0  0  0  0
    7.3248    1.8144    3.3474 C   0  0  0  0  0  0  0  0  0  0  0  0
    6.4360    1.7694    2.1520 C   0  0  0  0  0  0  0  0  0  0  0  0
    5.5118    0.5506    2.1753 C   0  0  0  0  0  0  0  0  0  0  0  0
    8.2890    0.9247    3.7168 C   0  0  0  0  0  0  0  0  0  0  0  0
    8.9492    1.2618    4.9276 C   0  0  0  0  0  0  0  0  0  0  0  0
   10.1112    0.2239    5.6406 Cl  0  0  0  0  0  0  0  0  0  0  0  0
    8.7222   -0.4626    2.8060 Cl  0  0  0  0  0  0  0  0  0  0  0  0
   10.3987    3.3103    6.8068 C   0  0  0  0  0  0  0  0  0  0  0  0
   11.6095    3.0024    5.5938 S   0  0  0  0  0  0  0  0  0  0  0  0
    6.7960    3.5609    7.7879 C   0  0  0  0  0  0  0  0  0  0  0  0
    6.2966    4.1149    8.9391 C   0  0  0  0  0  0  0  0  0  0  0  0
    7.5844    4.6346   10.0105 S   0  0  0  0  0  0  0  0  0  0  0  0
    4.9226    4.3247    9.2262 C   0  0  0  0  0  0  0  0  0  0  0  0
    3.7719    3.8403    8.0270 S   0  0  0  0  0  0  0  0  0  0  0  0
    2.4274    4.5058    8.8864 C   0  0  0  0  0  0  0  0  0  0  0  0
    2.8616    5.0527   10.1024 C   0  0  0  0  0  0  0  0  0  0  0  0
    4.2782    4.9578   10.2974 C   0  0  0  0  0  0  0  0  0  0  0  0
    4.8523    5.4841   11.4740 C   0  0  0  0  0  0  0  0  0  0  0  0
    4.0596    6.0806   12.4102 C   0  0  0  0  0  0  0  0  0  0  0  0
    2.6723    6.1695   12.1948 C   0  0  0  0  0  0  0  0  0  0  0  0
    1.9255    6.7694   13.1445 F   0  0  0  0  0  0  0  0  0  0  0  0
    2.0622    5.6798   11.0783 C   0  0  0  0  0  0  0  0  0  0  0  0
    1.0826    4.3776    8.4430 C   0  0  0  0  0  0  0  0  0  0  0  0
    0.6455    4.0194    7.2133 C   0  0  0  0  0  0  0  0  0  0  0  0
    1.4337    3.8938    6.0220 C   0  0  0  0  0  0  0  0  0  0  0  0
    2.5648    5.0980    5.5200 S   0  0  0  0  0  0  0  0  0  0  0  0
    2.9963    4.2488    4.0699 C   0  0  0  0  0  0  0  0  0  0  0  0
    2.2808    3.0512    3.9852 C   0  0  0  0  0  0  0  0  0  0  0  0
    1.3647    2.8739    5.0731 C   0  0  0  0  0  0  0  0  0  0  0  0
    0.5598    1.7160    5.1448 C   0  0  0  0  0  0  0  0  0  0  0  0
    0.6479    0.7689    4.1694 C   0  0  0  0  0  0  0  0  0  0  0  0
    1.5848    0.9377    3.1320 C   0  0  0  0  0  0  0  0  0  0  0  0
    1.6792   -0.0400    2.2056 F   0  0  0  0  0  0  0  0  0  0  0  0
    2.4048    2.0207    3.0300 C   0  0  0  0  0  0  0  0  0  0  0  0
    4.0136    4.8351    3.2501 C   0  0  0  0  0  0  0  0  0  0  0  0
    4.1801    4.7402    1.9139 C   0  0  0  0  0  0  0  0  0  0  0  0
    3.2475    4.1332    1.0075 C   0  0  0  0  0  0  0  0  0  0  0  0
    1.8885    4.1336    1.0861 C   0  0  0  0  0  0  0  0  0  0  0  0
    1.2586    3.3078    0.1241 C   0  0  0  0  0  0  0  0  0  0  0  0
   -0.1133    3.0367   -0.0175 C   0  0  0  0  0  0  0  0  0  0  0  0
   -1.0882    3.6182    0.8888 C   0  0  0  0  0  0  0  0  0  0  0  0
   -0.8618    3.5134    2.6112 S   0  0  0  0  0  0  0  0  0  0  0  0
   -2.3443    4.3439    2.9396 C   0  0  0  0  0  0  0  0  0  0  0  0
   -2.7800    4.5901    4.3420 C   0  0  0  0  0  0  0  0  0  0  0  0
   -3.1602    3.2843    5.0414 C   0  0  0  0  0  0  0  0  0  0  0  0
   -2.9717    4.6663    1.7743 C   0  0  0  0  0  0  0  0  0  0  0  0
   -4.4690    5.4993    1.6879 Cl  0  0  0  0  0  0  0  0  0  0  0  0
   -2.2634    4.2586    0.6100 C   0  0  0  0  0  0  0  0  0  0  0  0
   -2.8105    4.6330   -0.9696 Cl  0  0  0  0  0  0  0  0  0  0  0  0
   -0.4757    2.1343   -1.0096 C   0  0  0  0  0  0  0  0  0  0  0  0
    0.4671    1.5071   -1.8634 C   0  0  0  0  0  0  0  0  0  0  0  0
    1.8366    1.8058   -1.7430 C   0  0  0  0  0  0  0  0  0  0  0  0
    2.8300    1.1813   -2.5989 C   0  0  0  0  0  0  0  0  0  0  0  0
    4.2367    0.4161   -1.9183 S   0  0  0  0  0  0  0  0  0  0  0  0
    4.8449   -0.0322   -3.4734 C   0  0  0  0  0  0  0  0  0  0  0  0
    6.0981   -0.8234   -3.6121 C   0  0  0  0  0  0  0  0  0  0  0  0
    5.8226   -2.3195   -3.4425 C   0  0  0  0  0  0  0  0  0  0  0  0
    3.9953    0.3882   -4.4529 C   0  0  0  0  0  0  0  0  0  0  0  0
    2.8538    1.0777   -3.9628 C   0  0  0  0  0  0  0  0  0  0  0  0
    1.6840    1.7737   -5.0112 Cl  0  0  0  0  0  0  0  0  0  0  0  0
    4.2687    0.1356   -6.1282 Cl  0  0  0  0  0  0  0  0  0  0  0  0
    2.1979    2.6896   -0.7357 C   0  0  0  0  0  0  0  0  0  0  0  0
    3.8249    3.1739   -0.3465 S   0  0  0  0  0  0  0  0  0  0  0  0
   -0.1442    0.5540   -2.7120 C   0  0  0  0  0  0  0  0  0  0  0  0
   -1.4943    0.4548   -2.5367 C   0  0  0  0  0  0  0  0  0  0  0  0
   -2.0821    1.5373   -1.2970 S   0  0  0  0  0  0  0  0  0  0  0  0
   -2.3962   -0.3988   -3.2414 C   0  0  0  0  0  0  0  0  0  0  0  0
   -2.1279   -1.1379   -4.3570 C   0  0  0  0  0  0  0  0  0  0  0  0
   -3.2362   -1.8884   -4.8167 C   0  0  0  0  0  0  0  0  0  0  0  0
   -3.3036   -2.7332   -5.9405 C   0  0  0  0  0  0  0  0  0  0  0  0
   -2.1718   -2.8637   -6.8432 C   0  0  0  0  0  0  0  0  0  0  0  0
   -1.4235   -1.4496   -7.5299 S   0  0  0  0  0  0  0  0  0  0  0  0
   -0.2748   -2.3892   -8.4203 C   0  0  0  0  0  0  0  0  0  0  0  0
    0.7804   -1.7302   -9.2374 C   0  0  0  0  0  0  0  0  0  0  0  0
    1.8560   -1.1129   -8.3413 C   0  0  0  0  0  0  0  0  0  0  0  0
   -0.4699   -3.7169   -8.1851 C   0  0  0  0  0  0  0  0  0  0  0  0
    0.4786   -4.9647   -8.8842 Cl  0  0  0  0  0  0  0  0  0  0  0  0
   -1.5459   -3.9911   -7.2971 C   0  0  0  0  0  0  0  0  0  0  0  0
   -1.9275   -5.5834   -6.7914 Cl  0  0  0  0  0  0  0  0  0  0  0  0
   -4.5005   -3.4045   -6.1507 C   0  0  0  0  0  0  0  0  0  0  0  0
   -5.6236   -3.2585   -5.2970 C   0  0  0  0  0  0  0  0  0  0  0  0
   -5.5753   -2.3679   -4.2110 C   0  0  0  0  0  0  0  0  0  0  0  0
   -6.7466   -2.1262   -3.3872 C   0  0  0  0  0  0  0  0  0  0  0  0
   -6.6761   -2.2181   -1.6526 S   0  0  0  0  0  0  0  0  0  0  0  0
   -8.3510   -1.8197   -1.4856 C   0  0  0  0  0  0  0  0  0  0  0  0
   -9.0071   -1.7788   -0.1499 C   0  0  0  0  0  0  0  0  0  0  0  0
   -9.5294   -3.1623    0.2450 C   0  0  0  0  0  0  0  0  0  0  0  0
   -8.9190   -1.6316   -2.7106 C   0  0  0  0  0  0  0  0  0  0  0  0
   -8.0126   -1.7990   -3.7912 C   0  0  0  0  0  0  0  0  0  0  0  0
   -8.4690   -1.5255   -5.4234 Cl  0  0  0  0  0  0  0  0  0  0  0  0
  -10.5683   -1.2220   -2.9476 Cl  0  0  0  0  0  0  0  0  0  0  0  0
   -4.3688   -1.7197   -3.9835 C   0  0  0  0  0  0  0  0  0  0  0  0
   -4.0473   -0.5948   -2.6967 S   0  0  0  0  0  0  0  0  0  0  0  0
   -6.6977   -4.0918   -5.6915 C   0  0  0  0  0  0  0  0  0  0  0  0
   -6.4464   -4.8023   -6.8270 C   0  0  0  0  0  0  0  0  0  0  0  0
   -4.8470   -4.4891   -7.4667 S   0  0  0  0  0  0  0  0  0  0  0  0
   -7.3103   -5.7322   -7.4755 C   0  0  0  0  0  0  0  0  0  0  0  0
   -7.0715   -6.4383   -8.6162 C   0  0  0  0  0  0  0  0  0  0  0  0
   -8.1366   -7.2990   -8.9807 C   0  0  0  0  0  0  0  0  0  0  0  0
   -8.2046   -8.1822  -10.0703 C   0  0  0  0  0  0  0  0  0  0  0  0
   -7.1013   -8.3130  -11.0082 C   0  0  0  0  0  0  0  0  0  0  0  0
   -5.4898   -8.6752  -10.4616 S   0  0  0  0  0  0  0  0  0  0  0  0
   -4.8589   -8.6829  -12.0723 C   0  0  0  0  0  0  0  0  0  0  0  0
   -3.4294   -9.0003  -12.3404 C   0  0  0  0  0  0  0  0  0  0  0  0
   -3.2166  -10.5119  -12.4512 C   0  0  0  0  0  0  0  0  0  0  0  0
   -5.8514   -8.4245  -12.9697 C   0  0  0  0  0  0  0  0  0  0  0  0
   -5.6096   -8.3473  -14.6666 Cl  0  0  0  0  0  0  0  0  0  0  0  0
   -7.1225   -8.2112  -12.3715 C   0  0  0  0  0  0  0  0  0  0  0  0
   -8.5065   -7.7823  -13.2859 Cl  0  0  0  0  0  0  0  0  0  0  0  0
   -9.3614   -8.9435  -10.1932 C   0  0  0  0  0  0  0  0  0  0  0  0
  -10.4467   -8.8486   -9.2891 C   0  0  0  0  0  0  0  0  0  0  0  0
  -10.3886   -7.9488   -8.2136 C   0  0  0  0  0  0  0  0  0  0  0  0
  -11.4774   -7.8265   -7.2564 C   0  0  0  0  0  0  0  0  0  0  0  0
  -12.0817   -9.2112   -6.3942 S   0  0  0  0  0  0  0  0  0  0  0  0
  -13.2250   -8.2615   -5.5083 C   0  0  0  0  0  0  0  0  0  0  0  0
  -14.1042   -8.8728   -4.4737 C   0  0  0  0  0  0  0  0  0  0  0  0
  -13.4207   -8.8682   -3.1041 C   0  0  0  0  0  0  0  0  0  0  0  0
  -13.1273   -6.9504   -5.8660 C   0  0  0  0  0  0  0  0  0  0  0  0
  -12.1405   -6.6994   -6.8576 C   0  0  0  0  0  0  0  0  0  0  0  0
  -11.8872   -5.1415   -7.5255 Cl  0  0  0  0  0  0  0  0  0  0  0  0
  -14.1020   -5.7044   -5.2018 Cl  0  0  0  0  0  0  0  0  0  0  0  0
   -9.2272   -7.1977   -8.0820 C   0  0  0  0  0  0  0  0  0  0  0  0
   -8.8865   -6.0777   -6.7957 S   0  0  0  0  0  0  0  0  0  0  0  0
  -11.4986   -9.7453   -9.6368 C   0  0  0  0  0  0  0  0  0  0  0  0
  -11.2097  -10.4947  -10.7204 C   0  0  0  0  0  0  0  0  0  0  0  0
   -9.6583  -10.1586  -11.4031 S   0  0  0  0  0  0  0  0  0  0  0  0
   13.8491    3.6771    6.2503 H   0  0  0  0  0  0  0  0  0  0  0  0
   13.0054    4.5167    8.5674 H   0  0  0  0  0  0  0  0  0  0  0  0
   11.2134    8.1102   13.0158 H   0  0  0  0  0  0  0  0  0  0  0  0
   12.2479    7.0252   13.9647 H   0  0  0  0  0  0  0  0  0  0  0  0
   10.1616    7.5970   15.2030 H   0  0  0  0  0  0  0  0  0  0  0  0
   10.2196    5.8688   14.8426 H   0  0  0  0  0  0  0  0  0  0  0  0
    9.1898    6.9358   13.8824 H   0  0  0  0  0  0  0  0  0  0  0  0
    5.8434    2.6849    2.1184 H   0  0  0  0  0  0  0  0  0  0  0  0
    7.0537    1.7273    1.2510 H   0  0  0  0  0  0  0  0  0  0  0  0
    4.8676    0.5584    1.2996 H   0  0  0  0  0  0  0  0  0  0  0  0
    6.0911   -0.3673    2.1625 H   0  0  0  0  0  0  0  0  0  0  0  0
    4.8962    0.5567    3.0715 H   0  0  0  0  0  0  0  0  0  0  0  0
    6.1602    3.1766    7.0107 H   0  0  0  0  0  0  0  0  0  0  0  0
    5.9152    5.4113   11.6333 H   0  0  0  0  0  0  0  0  0  0  0  0
    4.4701    6.4896   13.3193 H   0  0  0  0  0  0  0  0  0  0  0  0
    0.9962    5.7760   10.9535 H   0  0  0  0  0  0  0  0  0  0  0  0
    0.3378    4.5265    9.2134 H   0  0  0  0  0  0  0  0  0  0  0  0
   -0.4072    3.7918    7.0969 H   0  0  0  0  0  0  0  0  0  0  0  0
   -0.1126    1.5907    5.9792 H   0  0  0  0  0  0  0  0  0  0  0  0
    0.0395   -0.1210    4.1808 H   0  0  0  0  0  0  0  0  0  0  0  0
    3.1412    2.0654    2.2498 H   0  0  0  0  0  0  0  0  0  0  0  0
    4.7323    5.4328    3.7975 H   0  0  0  0  0  0  0  0  0  0  0  0
    5.0820    5.1455    1.4751 H   0  0  0  0  0  0  0  0  0  0  0  0
    1.3572    4.7118    1.8181 H   0  0  0  0  0  0  0  0  0  0  0  0
   -1.9662    5.0703    4.8915 H   0  0  0  0  0  0  0  0  0  0  0  0
   -3.6352    5.2672    4.3262 H   0  0  0  0  0  0  0  0  0  0  0  0
   -3.4577    3.4813    6.0681 H   0  0  0  0  0  0  0  0  0  0  0  0
   -2.3140    2.6006    5.0411 H   0  0  0  0  0  0  0  0  0  0  0  0
   -3.9898    2.8079    4.5253 H   0  0  0  0  0  0  0  0  0  0  0  0
    6.5217   -0.6387   -4.6010 H   0  0  0  0  0  0  0  0  0  0  0  0
    6.8157   -0.4995   -2.8565 H   0  0  0  0  0  0  0  0  0  0  0  0
    5.4024   -2.5160   -2.4591 H   0  0  0  0  0  0  0  0  0  0  0  0
    5.1186   -2.6614   -4.1968 H   0  0  0  0  0  0  0  0  0  0  0  0
    6.7458   -2.8827   -3.5472 H   0  0  0  0  0  0  0  0  0  0  0  0
    0.4018   -0.0594   -3.4029 H   0  0  0  0  0  0  0  0  0  0  0  0
   -1.1679   -1.1434   -4.8374 H   0  0  0  0  0  0  0  0  0  0  0  0
    1.2292   -2.4760   -9.8954 H   0  0  0  0  0  0  0  0  0  0  0  0
    0.3306   -0.9475   -9.8519 H   0  0  0  0  0  0  0  0  0  0  0  0
    2.6230   -0.6397   -8.9485 H   0  0  0  0  0  0  0  0  0  0  0  0
    2.3228   -1.8796   -7.7276 H   0  0  0  0  0  0  0  0  0  0  0  0
    1.4180   -0.3624   -7.6873 H   0  0  0  0  0  0  0  0  0  0  0  0
   -9.8390   -1.0730   -0.1896 H   0  0  0  0  0  0  0  0  0  0  0  0
   -8.2885   -1.4337    0.5951 H   0  0  0  0  0  0  0  0  0  0  0  0
  -10.2558   -3.5122   -0.4840 H   0  0  0  0  0  0  0  0  0  0  0  0
   -8.7101   -3.8759    0.2902 H   0  0  0  0  0  0  0  0  0  0  0  0
  -10.0079   -3.1167    1.2196 H   0  0  0  0  0  0  0  0  0  0  0  0
   -7.6204   -4.1798   -5.1474 H   0  0  0  0  0  0  0  0  0  0  0  0
   -6.1574   -6.3423   -9.1736 H   0  0  0  0  0  0  0  0  0  0  0  0
   -2.8125   -8.6043  -11.5320 H   0  0  0  0  0  0  0  0  0  0  0  0
   -3.1336   -8.5204  -13.2752 H   0  0  0  0  0  0  0  0  0  0  0  0
   -2.1701  -10.7277  -12.6490 H   0  0  0  0  0  0  0  0  0  0  0  0
   -3.8161  -10.9182  -13.2619 H   0  0  0  0  0  0  0  0  0  0  0  0
   -3.5058  -11.0026  -11.5248 H   0  0  0  0  0  0  0  0  0  0  0  0
  -15.0321   -8.3001   -4.4194 H   0  0  0  0  0  0  0  0  0  0  0  0
  -14.3408   -9.8989   -4.7596 H   0  0  0  0  0  0  0  0  0  0  0  0
  -12.4945   -9.4368   -3.1423 H   0  0  0  0  0  0  0  0  0  0  0  0
  -14.0743   -9.3143   -2.3595 H   0  0  0  0  0  0  0  0  0  0  0  0
  -13.1912   -7.8497   -2.8020 H   0  0  0  0  0  0  0  0  0  0  0  0
  -12.4220   -9.8161   -9.0924 H   0  0  0  0  0  0  0  0  0  0  0  0
  -11.8224  -11.2420  -11.1855 H   0  0  0  0  0  0  0  0  0  0  0  0
  1  2  2  0  0  0  0
  2  3  1  0  0  0  0
  3  4  2  0  0  0  0
  4  5  1  0  0  0  0
  5  6  1  0  0  0  0
  6  7  1  0  0  0  0
  7  8  1  0  0  0  0
  8  9  1  0  0  0  0
  7 10  2  0  0  0  0
 10 11  1  0  0  0  0
 10 12  1  0  0  0  0
 12 13  1  0  0  0  0
  4 14  1  0  0  0  0
 14 15  2  0  0  0  0
 15 16  1  0  0  0  0
 16 17  1  0  0  0  0
 17 18  1  0  0  0  0
 18 19  1  0  0  0  0
 19 20  1  0  0  0  0
 20 21  1  0  0  0  0
 19 22  2  0  0  0  0
 22 23  1  0  0  0  0
 23 24  1  0  0  0  0
 22 25  1  0  0  0  0
 16 26  2  0  0  0  0
 26 27  1  0  0  0  0
 15 28  1  0  0  0  0
 28 29  2  0  0  0  0
 29 30  1  0  0  0  0
 29 31  1  0  0  0  0
 31 32  1  0  0  0  0
 32 33  1  0  0  0  0
 33 34  2  0  0  0  0
 34 35  1  0  0  0  0
 35 36  1  0  0  0  0
 36 37  2  0  0  0  0
 37 38  1  0  0  0  0
 38 39  1  0  0  0  0
 38 40  2  0  0  0  0
 33 41  1  0  0  0  0
 41 42  2  0  0  0  0
 42 43  1  0  0  0  0
 43 44  1  0  0  0  0
 44 45  1  0  0  0  0
 45 46  2  0  0  0  0
 46 47  1  0  0  0  0
 47 48  1  0  0  0  0
 48 49  2  0  0  0  0
 49 50  1  0  0  0  0
 50 51  1  0  0  0  0
 50 52  2  0  0  0  0
 45 53  1  0  0  0  0
 53 54  2  0  0  0  0
 54 55  1  0  0  0  0
 55 56  2  0  0  0  0
 56 57  1  0  0  0  0
 57 58  2  0  0  0  0
 58 59  1  0  0  0  0
 59 60  1  0  0  0  0
 60 61  1  0  0  0  0
 61 62  1  0  0  0  0
 62 63  1  0  0  0  0
 61 64  2  0  0  0  0
 64 65  1  0  0  0  0
 64 66  1  0  0  0  0
 66 67  1  0  0  0  0
 58 68  1  0  0  0  0
 68 69  2  0  0  0  0
 69 70  1  0  0  0  0
 70 71  1  0  0  0  0
 71 72  1  0  0  0  0
 72 73  1  0  0  0  0
 73 74  1  0  0  0  0
 74 75  1  0  0  0  0
 73 76  2  0  0  0  0
 76 77  1  0  0  0  0
 77 78  1  0  0  0  0
 76 79  1  0  0  0  0
 70 80  2  0  0  0  0
 80 81  1  0  0  0  0
 69 82  1  0  0  0  0
 82 83  2  0  0  0  0
 83 84  1  0  0  0  0
 83 85  1  0  0  0  0
 85 86  2  0  0  0  0
 86 87  1  0  0  0  0
 87 88  2  0  0  0  0
 88 89  1  0  0  0  0
 89 90  1  0  0  0  0
 90 91  1  0  0  0  0
 91 92  1  0  0  0  0
 92 93  1  0  0  0  0
 91 94  2  0  0  0  0
 94 95  1  0  0  0  0
 94 96  1  0  0  0  0
 96 97  1  0  0  0  0
 88 98  1  0  0  0  0
 98 99  2  0  0  0  0
 99100  1  0  0  0  0
100101  1  0  0  0  0
101102  1  0  0  0  0
102103  1  0  0  0  0
103104  1  0  0  0  0
104105  1  0  0  0  0
103106  2  0  0  0  0
106107  1  0  0  0  0
107108  1  0  0  0  0
106109  1  0  0  0  0
100110  2  0  0  0  0
110111  1  0  0  0  0
 99112  1  0  0  0  0
112113  2  0  0  0  0
113114  1  0  0  0  0
113115  1  0  0  0  0
115116  2  0  0  0  0
116117  1  0  0  0  0
117118  2  0  0  0  0
118119  1  0  0  0  0
119120  1  0  0  0  0
120121  1  0  0  0  0
121122  1  0  0  0  0
122123  1  0  0  0  0
121124  2  0  0  0  0
124125  1  0  0  0  0
124126  1  0  0  0  0
126127  1  0  0  0  0
118128  1  0  0  0  0
128129  2  0  0  0  0
129130  1  0  0  0  0
130131  1  0  0  0  0
131132  1  0  0  0  0
132133  1  0  0  0  0
133134  1  0  0  0  0
134135  1  0  0  0  0
133136  2  0  0  0  0
136137  1  0  0  0  0
137138  1  0  0  0  0
136139  1  0  0  0  0
130140  2  0  0  0  0
140141  1  0  0  0  0
129142  1  0  0  0  0
142143  2  0  0  0  0
143144  1  0  0  0  0
 27  1  1  0  0  0  0
 35 31  2  0  0  0  0
 47 43  2  0  0  0  0
 81 55  1  0  0  0  0
111 85  1  0  0  0  0
141115  1  0  0  0  0
 26  3  1  0  0  0  0
 40 34  1  0  0  0  0
 52 46  1  0  0  0  0
 80 57  1  0  0  0  0
110 87  1  0  0  0  0
140117  1  0  0  0  0
 12  5  2  0  0  0  0
 30 14  1  0  0  0  0
 66 59  2  0  0  0  0
 84 68  1  0  0  0  0
 96 89  2  0  0  0  0
114 98  1  0  0  0  0
126119  2  0  0  0  0
144128  1  0  0  0  0
 23 17  2  0  0  0  0
 77 71  2  0  0  0  0
107101  2  0  0  0  0
137131  2  0  0  0  0
  1145  1  0  0  0  0
  2146  1  0  0  0  0
  8147  1  0  0  0  0
  8148  1  0  0  0  0
  9149  1  0  0  0  0
  9150  1  0  0  0  0
  9151  1  0  0  0  0
 20152  1  0  0  0  0
 20153  1  0  0  0  0
 21154  1  0  0  0  0
 21155  1  0  0  0  0
 21156  1  0  0  0  0
 28157  1  0  0  0  0
 36158  1  0  0  0  0
 37159  1  0  0  0  0
 40160  1  0  0  0  0
 41161  1  0  0  0  0
 42162  1  0  0  0  0
 48163  1  0  0  0  0
 49164  1  0  0  0  0
 52165  1  0  0  0  0
 53166  1  0  0  0  0
 54167  1  0  0  0  0
 56168  1  0  0  0  0
 62169  1  0  0  0  0
 62170  1  0  0  0  0
 63171  1  0  0  0  0
 63172  1  0  0  0  0
 63173  1  0  0  0  0
 74174  1  0  0  0  0
 74175  1  0  0  0  0
 75176  1  0  0  0  0
 75177  1  0  0  0  0
 75178  1  0  0  0  0
 82179  1  0  0  0  0
 86180  1  0  0  0  0
 92181  1  0  0  0  0
 92182  1  0  0  0  0
 93183  1  0  0  0  0
 93184  1  0  0  0  0
 93185  1  0  0  0  0
104186  1  0  0  0  0
104187  1  0  0  0  0
105188  1  0  0  0  0
105189  1  0  0  0  0
105190  1  0  0  0  0
112191  1  0  0  0  0
116192  1  0  0  0  0
122193  1  0  0  0  0
122194  1  0  0  0  0
123195  1  0  0  0  0
123196  1  0  0  0  0
123197  1  0  0  0  0
134198  1  0  0  0  0
134199  1  0  0  0  0
135200  1  0  0  0  0
135201  1  0  0  0  0
135202  1  0  0  0  0
142203  1  0  0  0  0
143204  1  0  0  0  0
M  END
