203

C          2.28930        2.23010      -11.41340
C          1.07980        2.75660      -11.13600
C          0.52030        2.26100       -9.91990
C         -0.68860        2.63100       -9.30970
C         -1.60930        3.58850       -9.93510
C         -2.10190        4.68130       -9.22360
C         -2.96100        5.57750       -9.82040
C         -3.37940        5.41610      -11.14140
S         -4.51040        6.61290      -11.77450
C         -4.13750        6.68060      -13.57330
C         -4.60040        8.01860      -14.11550
C         -2.90740        4.30090      -11.82750
F         -3.30490        4.04260      -13.09520
C         -2.02750        3.40860      -11.24930
C         -0.97490        2.04080       -8.08670
C         -0.11670        1.09470       -7.47840
C          1.11200        0.75210       -8.06500
C          2.03520       -0.14380       -7.35720
C          2.34240        0.09850       -6.01700
C          3.16260       -0.75640       -5.31520
C          3.70710       -1.89210       -5.91270
S          4.65120       -2.96680       -4.87410
C          6.05200       -3.50350       -5.92020
C          6.86960       -2.32700       -6.41160
C          3.40550       -2.11350       -7.25330
C          2.59930       -1.25380       -7.97470
F          3.88150       -3.20090       -7.89790
C          1.39090        1.33610       -9.29100
S          2.84480        1.10140      -10.22550
C         -0.66770        0.57900       -6.28100
C         -1.87090        1.12580       -5.94800
S         -2.40810        2.30640       -7.12080
C         -2.55490        0.81950       -4.72710
C         -2.39100       -0.34130       -4.03250
C         -2.93660       -0.30270       -2.72810
C         -2.80920       -1.26990       -1.72270
C         -2.03770       -2.50650       -1.90310
C         -0.73200       -2.46210       -2.39130
C          0.03410       -3.60560       -2.45780
C         -0.47030       -4.83820       -2.04690
S          0.59480       -6.24520       -2.17640
C          0.29180       -7.17070       -0.62400
C          0.52340       -6.32440        0.61030
C         -1.78740       -4.87430       -1.60010
F         -2.35950       -6.04240       -1.23140
C         -2.55940       -3.73370       -1.50940
C         -3.30950       -0.93060       -0.47760
C         -3.88810        0.32700       -0.17190
C         -4.06540        1.27110       -1.19870
C         -4.67470        2.58670       -0.96550
C         -5.72150        3.02000       -1.77350
C         -6.31190        4.25410       -1.58220
C         -5.87110        5.10390       -0.57460
S         -6.51030        6.70690       -0.22640
C         -8.04480        6.80540       -1.21100
C         -9.15530        5.94580       -0.63670
C         -4.80580        4.66430        0.21510
C         -4.21160        3.43540        0.03780
F         -4.33680        5.47280        1.18490
C         -3.58480        0.92630       -2.45580
S         -3.50620        1.99330       -3.83950
C         -4.09890        0.47800        1.22780
C         -3.67730       -0.59030        1.96040
S         -3.10600       -1.90820        0.94420
C         -3.39080       -0.71980        3.35300
C         -2.87830       -1.84700        3.92410
C         -2.25750       -1.62530        5.17280
C         -1.46150       -2.54800        5.87140
C         -1.39420       -3.93960        5.40770
C         -2.56180       -4.67910        5.23890
C         -2.53010       -5.95630        4.71520
C         -1.32790       -6.53020        4.31720
S         -1.16310       -8.12660        3.58640
C         -2.83560       -8.48550        2.94600
C         -3.24470       -7.54650        1.82830
C         -0.16280       -5.79040        4.52320
F          1.02230       -6.32270        4.16140
C         -0.17830       -4.52260        5.06050
C         -0.68870       -2.03270        6.89320
C         -0.75320       -0.67730        7.30480
C         -1.63800        0.22010        6.67250
C         -1.75060        1.60370        7.14530
C         -1.95050        1.85920        8.50010
C         -2.06470        3.14960        8.97840
C         -1.96440        4.23780        8.11880
S         -2.09670        5.93060        8.58500
C         -1.94220        5.90770       10.40450
C         -0.53490        5.57130       10.86000
C         -1.76720        3.96730        6.76290
C         -1.66510        2.68570        6.27160
F         -1.66030        4.99740        5.90240
C         -2.32820       -0.26800        5.57210
S         -3.26420        0.66700        4.42240
C          0.26710       -0.36840        8.23490
C          1.09680       -1.41990        8.52880
S          0.55700       -2.89940        7.74840
C          2.35780       -1.34960        9.17450
S          3.01300        0.21550        9.55500
C          4.60230       -0.41040        9.82430
C          4.59990       -1.80260        9.72650
C          3.32420       -2.34520        9.37130
C          3.17970       -3.74540        9.26920
C          4.25200       -4.55860        9.49210
C          5.49760       -4.00010        9.83560
F          6.52540       -4.84500       10.06020
C          5.69500       -2.65900        9.96450
C          5.71400        0.44890       10.09550
C          6.90530        0.39880        9.44790
C          7.21170       -0.28230        8.24210
S          6.00850       -0.97910        7.20690
C          7.12130       -1.24680        5.89870
C          8.42440       -0.89140        6.29420
C          8.46800       -0.33120        7.61060
C          9.69970        0.08500        8.15400
C         10.84950       -0.06230        7.43270
C         10.79150       -0.65420        6.16100
F         11.95140       -0.82360        5.48980
C          9.62620       -1.07200        5.58490
C          6.57740       -1.70630        4.68130
C          7.14630       -1.65300        3.44350
C          6.51220       -2.07550        2.25850
S          4.94510       -2.81880        2.25310
C          4.91680       -3.00170        0.53260
C          6.07410       -2.46140       -0.03810
C          6.98940       -1.95350        0.94060
C          8.21320       -1.39030        0.52960
C          8.51000       -1.30210       -0.79990
C          7.57380       -1.75520       -1.74600
F          7.88410       -1.60590       -3.05370
C          6.38040       -2.32050       -1.40910
C          3.78780       -3.67050       -0.04830
C          3.74610       -4.29580       -1.22550
H          2.91700        2.43210      -12.25930
H          0.59390        3.48850      -11.75490
H         -1.78640        4.84350       -8.20470
H         -3.32770        6.43040       -9.27110
H         -4.65310        5.85690      -14.06440
H         -3.06080        6.56230      -13.68450
H         -4.08910        8.83410      -13.60880
H         -4.38540        8.07710      -15.18030
H         -5.67130        8.13940      -13.96870
H         -1.70470        2.55370      -11.82360
H          1.94990        0.97960       -5.53230
H          3.39630       -0.56280       -4.27960
H          5.66740       -4.11050       -6.73690
H          6.63720       -4.13470       -5.25130
H          7.72290       -2.69030       -6.98050
H          7.23440       -1.74110       -5.57120
H          6.27580       -1.68200       -7.05720
H          2.38870       -1.48650       -9.00680
H         -0.17780       -0.16570       -5.68190
H         -1.88690       -1.20050       -4.43450
H         -0.30040       -1.51480       -2.67620
H          1.04970       -3.55860       -2.81980
H          1.01240       -7.98640       -0.67920
H         -0.71310       -7.58610       -0.65800
H          0.42070       -6.94370        1.49860
H         -0.19740       -5.50960        0.66950
H          1.52580       -5.90210        0.60050
H         -3.57330       -3.81950       -1.15040
H         -6.09210        2.37550       -2.55630
H         -7.11720        4.54860       -2.23470
H         -8.30990        7.86150       -1.16250
H         -7.81290        6.55470       -2.24510
H        -10.05790        6.05880       -1.23440
H         -8.87340        4.89510       -0.62740
H         -9.37360        6.25000        0.38410
H         -3.37510        3.16240        0.66160
H         -4.50350        1.36520        1.68050
H         -2.85690       -2.79600        3.41820
H         -3.50850       -4.24880        5.52980
H         -3.45400       -6.50250        4.61480
H         -3.53770       -8.47310        3.77910
H         -2.75040       -9.50940        2.58220
H         -2.54700       -7.61650        0.99850
H         -3.26580       -6.51350        2.16920
H         -4.23630       -7.81250        1.46780
H          0.75170       -3.98770        5.16780
H         -2.04130        1.03180        9.18800
H         -2.24070        3.29890       10.03120
H         -2.20960        6.92400       10.69380
H         -2.68780        5.22580       10.81130
H          0.17180        6.29050       10.45290
H         -0.24170        4.57800       10.52680
H         -0.47920        5.60470       11.94650
H         -1.49120        2.54480        5.21720
H          0.44040        0.62410        8.61210
H          2.21940       -4.17500        9.03690
H          4.16710       -5.63130        9.42440
H          6.65520       -2.26020       10.24890
H          5.56820        1.21150       10.84910
H          7.70080        1.02920        9.82300
H          9.73440        0.50550        9.14670
H         11.80720        0.24320        7.82250
H          9.64880       -1.56110        4.62640
H          5.55860       -2.07220        4.74660
H          8.12330       -1.21360        3.31920
H          8.91180       -1.02210        1.26430
H          9.43750       -0.87550       -1.14680
H          5.68560       -2.61780       -2.17600
H          2.91200       -3.69170        0.59050
H          2.84880       -4.78720       -1.55820
H          4.59480       -4.36950       -1.88020
