
  xtb     03042223443D
 energy: -158.190734028850 gnorm: 0.000235436711 xtb: 6.4.1 (unknown)
 76 83  0     0  0            999 V2000
    7.8438    4.3384    2.3461 C   0  0  0  0  0  0  0  0  0  0  0  0
    6.8063    5.2547    2.3223 C   0  0  0  0  0  0  0  0  0  0  0  0
    5.4937    4.8235    2.2914 C   0  0  0  0  0  0  0  0  0  0  0  0
    5.1851    3.4657    2.2912 C   0  0  0  0  0  0  0  0  0  0  0  0
    6.2324    2.5470    2.3044 C   0  0  0  0  0  0  0  0  0  0  0  0
    5.9746    1.2327    2.2495 F   0  0  0  0  0  0  0  0  0  0  0  0
    7.5496    2.9874    2.3311 C   0  0  0  0  0  0  0  0  0  0  0  0
    8.5512    2.0932    2.3339 F   0  0  0  0  0  0  0  0  0  0  0  0
    3.7839    3.0133    2.2683 C   0  0  0  0  0  0  0  0  0  0  0  0
    2.8933    3.4805    1.3048 C   0  0  0  0  0  0  0  0  0  0  0  0
    1.5837    3.0542    1.2738 C   0  0  0  0  0  0  0  0  0  0  0  0
    1.0940    2.1355    2.2083 C   0  0  0  0  0  0  0  0  0  0  0  0
    1.9816    1.6951    3.1952 C   0  0  0  0  0  0  0  0  0  0  0  0
    1.5633    0.8287    4.1352 F   0  0  0  0  0  0  0  0  0  0  0  0
    3.2999    2.1203    3.2215 C   0  0  0  0  0  0  0  0  0  0  0  0
    4.1019    1.6932    4.2086 F   0  0  0  0  0  0  0  0  0  0  0  0
   -0.2770    1.6739    2.1690 C   0  0  0  0  0  0  0  0  0  0  0  0
   -1.1890    1.4857    3.6220 S   0  0  0  0  0  0  0  0  0  0  0  0
   -2.5971    0.9416    2.7799 C   0  0  0  0  0  0  0  0  0  0  0  0
   -2.3782    0.9470    1.4025 C   0  0  0  0  0  0  0  0  0  0  0  0
   -1.0492    1.3570    1.0533 C   0  0  0  0  0  0  0  0  0  0  0  0
   -0.6625    1.3715   -0.3080 C   0  0  0  0  0  0  0  0  0  0  0  0
   -1.5895    1.1241   -1.2725 C   0  0  0  0  0  0  0  0  0  0  0  0
   -2.9200    0.8266   -0.9095 C   0  0  0  0  0  0  0  0  0  0  0  0
   -3.8149    0.6694   -1.9026 F   0  0  0  0  0  0  0  0  0  0  0  0
   -3.3240    0.6986    0.3839 C   0  0  0  0  0  0  0  0  0  0  0  0
   -3.7734    0.5782    3.5163 C   0  0  0  0  0  0  0  0  0  0  0  0
   -4.5892   -0.4701    3.2722 C   0  0  0  0  0  0  0  0  0  0  0  0
   -4.3752   -1.5678    2.3785 C   0  0  0  0  0  0  0  0  0  0  0  0
   -5.7500   -2.3225    1.6491 S   0  0  0  0  0  0  0  0  0  0  0  0
   -4.7947   -3.4558    0.7602 C   0  0  0  0  0  0  0  0  0  0  0  0
   -3.4457   -3.3137    1.0942 C   0  0  0  0  0  0  0  0  0  0  0  0
   -3.2029   -2.2358    2.0076 C   0  0  0  0  0  0  0  0  0  0  0  0
   -1.8936   -2.0226    2.4924 C   0  0  0  0  0  0  0  0  0  0  0  0
   -0.8627   -2.7953    2.0486 C   0  0  0  0  0  0  0  0  0  0  0  0
   -1.1243   -3.8487    1.1536 C   0  0  0  0  0  0  0  0  0  0  0  0
   -0.0927   -4.6301    0.7710 F   0  0  0  0  0  0  0  0  0  0  0  0
   -2.3744   -4.1445    0.7020 C   0  0  0  0  0  0  0  0  0  0  0  0
   -5.4508   -4.3405   -0.1571 C   0  0  0  0  0  0  0  0  0  0  0  0
   -4.9729   -4.8241   -1.3183 C   0  0  0  0  0  0  0  0  0  0  0  0
   -3.7209   -4.4491   -1.9615 C   0  0  0  0  0  0  0  0  0  0  0  0
   -2.9083   -5.4086   -2.5715 C   0  0  0  0  0  0  0  0  0  0  0  0
   -1.6744   -5.0830   -3.0935 C   0  0  0  0  0  0  0  0  0  0  0  0
   -1.2052   -3.7720   -3.0612 C   0  0  0  0  0  0  0  0  0  0  0  0
   -2.0513   -2.7942   -2.5434 C   0  0  0  0  0  0  0  0  0  0  0  0
   -1.6891   -1.5031   -2.6018 F   0  0  0  0  0  0  0  0  0  0  0  0
   -3.2804   -3.1242   -1.9996 C   0  0  0  0  0  0  0  0  0  0  0  0
   -4.0594   -2.1398   -1.5247 F   0  0  0  0  0  0  0  0  0  0  0  0
    0.1353   -3.4133   -3.5495 C   0  0  0  0  0  0  0  0  0  0  0  0
    0.5910   -3.8403   -4.7939 C   0  0  0  0  0  0  0  0  0  0  0  0
    1.8455   -3.4862   -5.2530 C   0  0  0  0  0  0  0  0  0  0  0  0
    2.6781   -2.6967   -4.4784 C   0  0  0  0  0  0  0  0  0  0  0  0
    2.2416   -2.2770   -3.2353 C   0  0  0  0  0  0  0  0  0  0  0  0
    3.0444   -1.5153   -2.4739 F   0  0  0  0  0  0  0  0  0  0  0  0
    0.9838   -2.6318   -2.7659 C   0  0  0  0  0  0  0  0  0  0  0  0
    0.6064   -2.2417   -1.5387 F   0  0  0  0  0  0  0  0  0  0  0  0
    8.8753    4.6504    2.3716 H   0  0  0  0  0  0  0  0  0  0  0  0
    7.0263    6.3106    2.3305 H   0  0  0  0  0  0  0  0  0  0  0  0
    4.6857    5.5386    2.2844 H   0  0  0  0  0  0  0  0  0  0  0  0
    3.2487    4.1822    0.5660 H   0  0  0  0  0  0  0  0  0  0  0  0
    0.9079    3.4533    0.5348 H   0  0  0  0  0  0  0  0  0  0  0  0
    0.3628    1.5748   -0.5714 H   0  0  0  0  0  0  0  0  0  0  0  0
   -1.3354    1.1419   -2.3195 H   0  0  0  0  0  0  0  0  0  0  0  0
   -4.3433    0.4442    0.6211 H   0  0  0  0  0  0  0  0  0  0  0  0
   -4.0139    1.2199    4.3549 H   0  0  0  0  0  0  0  0  0  0  0  0
   -5.5241   -0.5116    3.8180 H   0  0  0  0  0  0  0  0  0  0  0  0
   -1.7187   -1.2699    3.2411 H   0  0  0  0  0  0  0  0  0  0  0  0
    0.1469   -2.6432    2.3939 H   0  0  0  0  0  0  0  0  0  0  0  0
   -2.5370   -5.0124    0.0866 H   0  0  0  0  0  0  0  0  0  0  0  0
   -6.4548   -4.6268    0.1325 H   0  0  0  0  0  0  0  0  0  0  0  0
   -5.5555   -5.5678   -1.8450 H   0  0  0  0  0  0  0  0  0  0  0  0
   -3.2422   -6.4352   -2.5855 H   0  0  0  0  0  0  0  0  0  0  0  0
   -1.0419   -5.8531   -3.5070 H   0  0  0  0  0  0  0  0  0  0  0  0
   -0.0626   -4.4408   -5.4075 H   0  0  0  0  0  0  0  0  0  0  0  0
    2.1785   -3.8211   -6.2227 H   0  0  0  0  0  0  0  0  0  0  0  0
    3.6586   -2.4035   -4.8170 H   0  0  0  0  0  0  0  0  0  0  0  0
  1  2  2  0  0  0  0
  2  3  1  0  0  0  0
  3  4  2  0  0  0  0
  4  5  1  0  0  0  0
  5  6  1  0  0  0  0
  5  7  2  0  0  0  0
  7  8  1  0  0  0  0
  4  9  1  0  0  0  0
  9 10  2  0  0  0  0
 10 11  1  0  0  0  0
 11 12  2  0  0  0  0
 12 13  1  0  0  0  0
 13 14  1  0  0  0  0
 13 15  2  0  0  0  0
 15 16  1  0  0  0  0
 12 17  1  0  0  0  0
 17 18  1  0  0  0  0
 18 19  1  0  0  0  0
 19 20  2  0  0  0  0
 20 21  1  0  0  0  0
 21 22  1  0  0  0  0
 22 23  2  0  0  0  0
 23 24  1  0  0  0  0
 24 25  1  0  0  0  0
 24 26  2  0  0  0  0
 19 27  1  0  0  0  0
 27 28  2  0  0  0  0
 28 29  1  0  0  0  0
 29 30  1  0  0  0  0
 30 31  1  0  0  0  0
 31 32  2  0  0  0  0
 32 33  1  0  0  0  0
 33 34  1  0  0  0  0
 34 35  2  0  0  0  0
 35 36  1  0  0  0  0
 36 37  1  0  0  0  0
 36 38  2  0  0  0  0
 31 39  1  0  0  0  0
 39 40  2  0  0  0  0
 40 41  1  0  0  0  0
 41 42  2  0  0  0  0
 42 43  1  0  0  0  0
 43 44  2  0  0  0  0
 44 45  1  0  0  0  0
 45 46  1  0  0  0  0
 45 47  2  0  0  0  0
 47 48  1  0  0  0  0
 44 49  1  0  0  0  0
 49 50  2  0  0  0  0
 50 51  1  0  0  0  0
 51 52  2  0  0  0  0
 52 53  1  0  0  0  0
 53 54  1  0  0  0  0
 53 55  2  0  0  0  0
 55 56  1  0  0  0  0
  7  1  1  0  0  0  0
 15  9  1  0  0  0  0
 21 17  2  0  0  0  0
 33 29  2  0  0  0  0
 47 41  1  0  0  0  0
 55 49  1  0  0  0  0
 26 20  1  0  0  0  0
 38 32  1  0  0  0  0
  1 57  1  0  0  0  0
  2 58  1  0  0  0  0
  3 59  1  0  0  0  0
 10 60  1  0  0  0  0
 11 61  1  0  0  0  0
 22 62  1  0  0  0  0
 23 63  1  0  0  0  0
 26 64  1  0  0  0  0
 27 65  1  0  0  0  0
 28 66  1  0  0  0  0
 34 67  1  0  0  0  0
 35 68  1  0  0  0  0
 38 69  1  0  0  0  0
 39 70  1  0  0  0  0
 40 71  1  0  0  0  0
 42 72  1  0  0  0  0
 43 73  1  0  0  0  0
 50 74  1  0  0  0  0
 51 75  1  0  0  0  0
 52 76  1  0  0  0  0
M  END
