236

C          1.11080        1.97120       13.24490
C          1.52620        2.85190       12.31270
C          1.36610        2.36740       10.98010
C          1.70090        3.00630        9.77720
C          2.24850        4.36880        9.74470
C          3.41730        4.65680        9.04170
C          3.90400        5.94410        8.98640
C          3.25350        6.99690        9.63010
S          3.99880        8.59130        9.50490
C          2.58590        9.76230        9.60610
C          2.99330       11.07440        8.96550
C          2.10240        6.68970       10.34950
F          1.43240        7.64460       11.03550
C          1.59600        5.40640       10.40090
C          1.47500        2.29210        8.61030
C          0.89430        1.00060        8.59100
C          0.57070        0.35590        9.79440
C          0.02070       -1.00540        9.79740
C         -1.08860       -1.34280        9.02300
C         -1.55550       -2.63860        8.99490
C         -0.94760       -3.65040        9.73920
S         -1.66860       -5.25980        9.61700
C         -0.27610       -6.43350        9.80800
C          0.78710       -6.24440        8.74490
C          0.12880       -3.28790       10.54260
C          0.61800       -1.99740       10.56690
F          0.74870       -4.19470       11.33080
C          0.82880        1.05740       10.96400
S          0.50700        0.49110       12.58290
C          0.75330        0.50450        7.26880
C          1.20210        1.36180        6.31330
S          1.82340        2.85420        6.99540
C          1.24150        1.15830        4.90110
C          2.01190        1.82200        3.99630
C          1.85650        1.35200        2.66850
C          2.51310        1.80650        1.51420
C          3.55050        2.84050        1.60050
C          4.61440        2.70650        2.48810
C          5.57270        3.69330        2.60820
C          5.49200        4.85880        1.85440
S          6.63400        6.19840        1.92910
C          7.50410        5.94710        3.51570
C          6.59880        6.16230        4.71380
C          4.43450        4.96670        0.94910
F          4.33290        6.07730        0.19240
C          3.47800        3.98610        0.81140
C          2.11260        1.24600        0.31270
C          1.07890        0.28000        0.20690
C          0.45970       -0.21320        1.37090
C         -0.57380       -1.25470        1.33190
C         -1.67830       -1.16020        0.49140
C         -2.62110       -2.16460        0.44440
C         -2.49380       -3.31410        1.21950
S         -3.75330       -4.54520        1.06070
C         -2.83060       -6.12580        1.10940
C         -1.76690       -6.19090        0.03250
C         -1.41600       -3.37050        2.09590
C         -0.47670       -2.36420        2.16410
F         -1.24690       -4.42910        2.92280
C          0.88390        0.32720        2.57700
S          0.25010       -0.07450        4.15120
C          0.83870       -0.06890       -1.14780
C          1.66360        0.55110       -2.03830
S          2.81130        1.61640       -1.24010
C          1.57320        0.55920       -3.46680
S          0.01450        0.73540       -4.19270
C          0.66240        1.00370       -5.78010
C          2.05280        0.84280       -5.75980
C          2.57150        0.63380       -4.43810
C          3.96510        0.51590       -4.24160
C          4.80540        0.60790       -5.31040
C          4.27630        0.81700       -6.59930
F          5.14770        0.89520       -7.62670
C          2.94110        0.93720       -6.84860
C         -0.18660        1.49480       -6.80970
C         -1.31300        2.17340       -6.47100
C         -2.34770        2.78070       -7.21850
S         -3.40180        3.77000       -6.25880
C         -4.55370        3.97580       -7.52280
C         -4.09030        3.38040       -8.69190
C         -2.82920        2.70590       -8.53200
C         -2.26980        2.02540       -9.63200
C         -2.93760        1.98240      -10.82130
C         -4.19010        2.61410      -10.94120
F         -4.83600        2.51120      -12.12400
C         -4.77390        3.30820       -9.92560
C         -5.84910        4.54880       -7.19130
C         -6.56800        4.08050       -6.15820
C         -6.11700        2.86280       -5.50080
C         -5.76240        1.74910       -6.19190
C         -4.98560        0.82480       -5.44990
C         -4.28380       -0.27890       -5.95500
C         -4.32150       -0.61060       -7.38310
C         -5.51100       -0.71970       -8.09550
C         -5.51240       -0.93170       -9.46150
C         -4.31970       -1.04920      -10.16590
S         -4.15380       -1.24860      -11.90500
C         -5.85760       -1.14180      -12.54700
C         -6.60120       -2.46060      -12.44340
C         -3.13540       -0.97700       -9.42990
F         -1.95650       -1.09430      -10.07720
C         -3.11930       -0.75650       -8.07410
C         -3.44970       -0.93600       -5.06440
C         -3.25820       -0.50690       -3.72970
C         -3.90860        0.64250       -3.24980
C         -3.54580        1.18820       -1.92510
C         -4.35780        1.06790       -0.80220
C         -3.91630        1.51300        0.42730
C         -2.65520        2.09100        0.59600
S         -2.17630        2.41730        2.26410
C         -0.86000        3.68710        2.20780
C         -1.35520        5.00770        1.65490
C         -1.87640        2.24410       -0.54700
C         -2.31110        1.80960       -1.78360
F         -0.64270        2.79920       -0.49900
C         -4.78300        1.26970       -4.11860
S         -5.62570        2.77470       -3.81780
C         -2.35270       -1.34890       -3.03510
C         -1.87680       -2.38220       -3.78360
S         -2.50940       -2.35940       -5.41860
C         -0.96700       -3.41240       -3.39910
C         -0.56930       -4.48020       -4.14490
C          0.35580       -5.32830       -3.48290
C          0.94220       -6.50820       -3.96510
C          0.57170       -7.07060       -5.26900
C          1.53930       -7.42760       -6.20240
C          1.18960       -7.96720       -7.42520
C         -0.14440       -8.17270       -7.75850
S         -0.73200       -8.87510       -9.26200
C          0.71650       -8.84040      -10.37310
C          1.06860       -7.43350      -10.81760
C         -1.10410       -7.82100       -6.80650
F         -2.40760       -8.02260       -7.08600
C         -0.76980       -7.27750       -5.58760
C          1.86930       -7.12420       -3.13580
C          2.20040       -6.63940       -1.84790
C          1.58830       -5.47810       -1.35230
C          1.87770       -4.97400       -0.00330
C          2.24140       -3.64510        0.20880
C          2.48420       -3.18000        1.48270
C          2.36860       -4.01480        2.59400
S          2.63000       -3.30700        4.19270
C          1.41560       -4.20330        5.24830
C          0.82690       -3.24230        6.26130
C          2.04990       -5.34940        2.36410
C          1.79330       -5.82480        1.09430
F          1.99180       -6.23400        3.38380
C          0.68950       -4.84180       -2.19550
S         -0.20660       -3.39230       -1.81650
C          3.18570       -7.45750       -1.21790
C          3.55150       -8.51350       -1.97150
S          2.74110       -8.59170       -3.49820
H          1.12210        2.08620       14.31120
H          1.94820        3.81240       12.54590
H          3.95090        3.86250        8.54330
H          4.80660        6.16410        8.43780
H          2.32650        9.90030       10.65460
H          1.75160        9.30710        9.07470
H          3.84730       11.50380        9.48450
H          3.26350       10.92350        7.92280
H          2.16530       11.77830        9.01490
H          0.68270        5.23170       10.94860
H         -1.59250       -0.58070        8.44880
H         -2.40900       -2.89720        8.38740
H          0.12950       -6.34380       10.81300
H         -0.76160       -7.40450        9.70720
H          0.35160       -6.31970        7.75050
H          1.54880       -7.01430        8.85120
H          1.26730       -5.27290        8.84330
H          1.47390       -1.78320       11.18770
H          0.35670       -0.46630        7.03690
H          2.67040        2.62610        4.27230
H          4.70360        1.80740        3.07930
H          6.39000        3.54380        3.29500
H          8.29590        6.69560        3.48930
H          7.96340        4.95920        3.51190
H          7.16740        6.03570        5.63320
H          5.77370        5.45290        4.71450
H          6.18580        7.16800        4.69630
H          2.66960        4.13360        0.11270
H         -1.80700       -0.27570       -0.10890
H         -3.47840       -2.08090       -0.20600
H         -3.60690       -6.87280        0.94400
H         -2.41220       -6.26340        2.10410
H         -1.30720       -7.17740        0.02490
H         -0.99020       -5.45020        0.21390
H         -2.20190       -6.00280       -0.94730
H          0.33320       -2.45750        2.86640
H          0.09390       -0.77720       -1.45710
H          4.34920        0.35240       -3.24700
H          5.87450        0.52300       -5.19910
H          2.58020        1.09300       -7.85200
H          0.13780        1.38430       -7.83270
H         -1.46180        2.31060       -5.40380
H         -1.31630        1.53500       -9.53050
H         -2.53610        1.45860      -11.67390
H         -5.73100        3.78790      -10.05350
H         -6.20320        5.38300       -7.78190
H         -7.47140        4.56900       -5.82560
H         -5.97860        1.63070       -7.23810
H         -6.45350       -0.65420       -7.57300
H         -6.45850       -0.99810       -9.97320
H         -5.72370       -0.85590      -13.59030
H         -6.36360       -0.32800      -12.03000
H         -7.60840       -2.34950      -12.84070
H         -6.08490       -3.22720      -13.01650
H         -6.66880       -2.79770      -11.41140
H         -2.17110       -0.66560       -7.56870
H         -5.32950        0.60690       -0.88920
H         -4.53710        1.39440        1.30140
H         -0.01250        3.29620        1.64930
H         -0.57260        3.78350        3.25580
H         -2.21660        5.35820        2.21960
H         -1.64200        4.91000        0.61050
H         -0.56370        5.75100        1.72450
H         -1.65910        1.94280       -2.63140
H         -2.08670       -1.20810       -2.00620
H         -0.91790       -4.64770       -5.14840
H          2.58270       -7.26560       -5.97910
H          1.97250       -8.23350       -8.11600
H          1.54690       -9.34510       -9.88100
H          0.39830       -9.44620      -11.22170
H          1.91160       -7.46310      -11.50540
H          1.33460       -6.80820       -9.96820
H          0.22170       -6.97750      -11.32480
H         -1.55280       -7.04070       -4.88440
H          2.33770       -2.97390       -0.63060
H          2.75680       -2.14790        1.64210
H          0.63770       -4.59060        4.59520
H          1.93690       -5.02860        5.73190
H          1.60360       -2.82290        6.89800
H          0.31540       -2.42940        5.75030
H          0.10560       -3.76330        6.88670
H          1.51480       -6.86060        0.97590
H          3.60380       -7.24260       -0.25140
H          4.26870       -9.27490       -1.73450
