
  xtb     03042223173D
 energy: -358.841457765186 gnorm: 0.000352716548 xtb: 6.4.1 (unknown)
203223  0     0  0            999 V2000
   11.3168   -6.2228    5.5133 C   0  0  0  0  0  0  0  0  0  0  0  0
   10.5994   -7.7617    5.6217 S   0  0  0  0  0  0  0  0  0  0  0  0
   10.1097   -7.7480    3.9546 C   0  0  0  0  0  0  0  0  0  0  0  0
   10.5253   -6.5570    3.3418 C   0  0  0  0  0  0  0  0  0  0  0  0
   11.2066   -5.6799    4.2499 C   0  0  0  0  0  0  0  0  0  0  0  0
   11.6632   -4.4159    3.8072 C   0  0  0  0  0  0  0  0  0  0  0  0
   11.4548   -4.0439    2.5143 C   0  0  0  0  0  0  0  0  0  0  0  0
   10.8015   -4.9283    1.6320 C   0  0  0  0  0  0  0  0  0  0  0  0
   10.6329   -4.5232    0.3548 F   0  0  0  0  0  0  0  0  0  0  0  0
   10.3436   -6.1583    2.0036 C   0  0  0  0  0  0  0  0  0  0  0  0
    9.3247   -8.7789    3.3994 C   0  0  0  0  0  0  0  0  0  0  0  0
    8.9393   -9.9037    4.0599 C   0  0  0  0  0  0  0  0  0  0  0  0
    8.0326  -10.8574    3.5593 C   0  0  0  0  0  0  0  0  0  0  0  0
    7.0581  -10.5569    2.1552 S   0  0  0  0  0  0  0  0  0  0  0  0
    6.2323  -12.0783    2.2664 C   0  0  0  0  0  0  0  0  0  0  0  0
    6.7275  -12.8122    3.3597 C   0  0  0  0  0  0  0  0  0  0  0  0
    7.7252  -12.1150    4.1055 C   0  0  0  0  0  0  0  0  0  0  0  0
    8.2981  -12.7112    5.2454 C   0  0  0  0  0  0  0  0  0  0  0  0
    7.8918  -13.9545    5.6365 C   0  0  0  0  0  0  0  0  0  0  0  0
    6.9032  -14.6232    4.8937 C   0  0  0  0  0  0  0  0  0  0  0  0
    6.5253  -15.8495    5.3126 F   0  0  0  0  0  0  0  0  0  0  0  0
    6.3146  -14.0906    3.7840 C   0  0  0  0  0  0  0  0  0  0  0  0
    5.2955  -12.5793    1.3266 C   0  0  0  0  0  0  0  0  0  0  0  0
    4.4400  -11.9886    0.4537 C   0  0  0  0  0  0  0  0  0  0  0  0
    4.0224  -10.6375    0.2767 C   0  0  0  0  0  0  0  0  0  0  0  0
    4.2421   -9.4851    0.9784 C   0  0  0  0  0  0  0  0  0  0  0  0
    3.5088   -8.3696    0.5055 C   0  0  0  0  0  0  0  0  0  0  0  0
    3.5341   -7.0526    0.9983 C   0  0  0  0  0  0  0  0  0  0  0  0
    4.5071   -6.6367    2.0140 C   0  0  0  0  0  0  0  0  0  0  0  0
    5.8578   -6.9346    1.8346 C   0  0  0  0  0  0  0  0  0  0  0  0
    6.7966   -6.4933    2.7392 C   0  0  0  0  0  0  0  0  0  0  0  0
    6.4296   -5.7662    3.8673 C   0  0  0  0  0  0  0  0  0  0  0  0
    7.7126   -5.3040    4.9907 S   0  0  0  0  0  0  0  0  0  0  0  0
    7.2538   -3.5855    5.4513 C   0  0  0  0  0  0  0  0  0  0  0  0
    8.5197   -2.8093    5.7559 C   0  0  0  0  0  0  0  0  0  0  0  0
    5.0776   -5.4957    4.0488 C   0  0  0  0  0  0  0  0  0  0  0  0
    4.6556   -4.8196    5.1392 F   0  0  0  0  0  0  0  0  0  0  0  0
    4.1273   -5.9032    3.1333 C   0  0  0  0  0  0  0  0  0  0  0  0
    2.6509   -6.1537    0.4214 C   0  0  0  0  0  0  0  0  0  0  0  0
    1.7951   -6.4918   -0.6570 C   0  0  0  0  0  0  0  0  0  0  0  0
    1.8163   -7.7909   -1.1951 C   0  0  0  0  0  0  0  0  0  0  0  0
    1.0001   -8.1505   -2.3608 C   0  0  0  0  0  0  0  0  0  0  0  0
    0.2133   -9.2983   -2.3640 C   0  0  0  0  0  0  0  0  0  0  0  0
   -0.5387   -9.6497   -3.4683 C   0  0  0  0  0  0  0  0  0  0  0  0
   -0.5376   -8.8597   -4.6116 C   0  0  0  0  0  0  0  0  0  0  0  0
   -1.4098   -9.2135   -6.1019 S   0  0  0  0  0  0  0  0  0  0  0  0
   -2.6217  -10.4915   -5.6255 C   0  0  0  0  0  0  0  0  0  0  0  0
   -3.7227   -9.9400   -4.7403 C   0  0  0  0  0  0  0  0  0  0  0  0
    0.2541   -7.7103   -4.5943 C   0  0  0  0  0  0  0  0  0  0  0  0
    1.0127   -7.3518   -3.5038 C   0  0  0  0  0  0  0  0  0  0  0  0
    0.2803   -6.9166   -5.6870 F   0  0  0  0  0  0  0  0  0  0  0  0
    2.6582   -8.7041   -0.5791 C   0  0  0  0  0  0  0  0  0  0  0  0
    2.8640  -10.3720   -1.0284 S   0  0  0  0  0  0  0  0  0  0  0  0
    0.9860   -5.3980   -1.0506 C   0  0  0  0  0  0  0  0  0  0  0  0
    1.2235   -4.2558   -0.3411 C   0  0  0  0  0  0  0  0  0  0  0  0
    2.4708   -4.4770    0.8672 S   0  0  0  0  0  0  0  0  0  0  0  0
    0.5696   -2.9951   -0.4881 C   0  0  0  0  0  0  0  0  0  0  0  0
   -0.4449   -2.6885   -1.3478 C   0  0  0  0  0  0  0  0  0  0  0  0
   -0.8983   -1.3506   -1.2416 C   0  0  0  0  0  0  0  0  0  0  0  0
   -1.9223   -0.7306   -1.9790 C   0  0  0  0  0  0  0  0  0  0  0  0
   -2.6000   -1.4412   -3.0687 C   0  0  0  0  0  0  0  0  0  0  0  0
   -1.8613   -2.0821   -4.0604 C   0  0  0  0  0  0  0  0  0  0  0  0
   -2.4812   -2.7785   -5.0786 C   0  0  0  0  0  0  0  0  0  0  0  0
   -3.8679   -2.8707   -5.1352 C   0  0  0  0  0  0  0  0  0  0  0  0
   -4.7767   -3.7427   -6.3648 S   0  0  0  0  0  0  0  0  0  0  0  0
   -3.5402   -4.8659   -7.1051 C   0  0  0  0  0  0  0  0  0  0  0  0
   -3.0811   -5.9369   -6.1363 C   0  0  0  0  0  0  0  0  0  0  0  0
   -4.5963   -2.1995   -4.1508 C   0  0  0  0  0  0  0  0  0  0  0  0
   -5.9425   -2.2565   -4.1807 F   0  0  0  0  0  0  0  0  0  0  0  0
   -3.9906   -1.4938   -3.1358 C   0  0  0  0  0  0  0  0  0  0  0  0
   -2.2419    0.5705   -1.6229 C   0  0  0  0  0  0  0  0  0  0  0  0
   -1.5493    1.2808   -0.6109 C   0  0  0  0  0  0  0  0  0  0  0  0
   -0.4825    0.6829    0.0822 C   0  0  0  0  0  0  0  0  0  0  0  0
    0.2853    1.4485    1.0726 C   0  0  0  0  0  0  0  0  0  0  0  0
    0.5048    0.9690    2.3618 C   0  0  0  0  0  0  0  0  0  0  0  0
    1.2084    1.7208    3.2799 C   0  0  0  0  0  0  0  0  0  0  0  0
    1.7213    2.9727    2.9496 C   0  0  0  0  0  0  0  0  0  0  0  0
    2.5617    3.8883    4.2109 S   0  0  0  0  0  0  0  0  0  0  0  0
    4.0514    4.5447    3.3525 C   0  0  0  0  0  0  0  0  0  0  0  0
    4.0076    6.0502    3.1838 C   0  0  0  0  0  0  0  0  0  0  0  0
    1.4904    3.4418    1.6608 C   0  0  0  0  0  0  0  0  0  0  0  0
    0.7968    2.6974    0.7296 C   0  0  0  0  0  0  0  0  0  0  0  0
    1.9381    4.6599    1.2800 F   0  0  0  0  0  0  0  0  0  0  0  0
   -0.2039   -0.6372   -0.2317 C   0  0  0  0  0  0  0  0  0  0  0  0
    1.0263   -1.6273    0.5081 S   0  0  0  0  0  0  0  0  0  0  0  0
   -2.0895    2.5733   -0.4107 C   0  0  0  0  0  0  0  0  0  0  0  0
   -3.1252    2.8708   -1.2485 C   0  0  0  0  0  0  0  0  0  0  0  0
   -3.4887    1.5556   -2.3440 S   0  0  0  0  0  0  0  0  0  0  0  0
   -3.8762    4.0860   -1.2557 C   0  0  0  0  0  0  0  0  0  0  0  0
   -3.8156    5.0694   -0.3113 C   0  0  0  0  0  0  0  0  0  0  0  0
   -4.6700    6.1648   -0.5775 C   0  0  0  0  0  0  0  0  0  0  0  0
   -4.8419    7.3218    0.2004 C   0  0  0  0  0  0  0  0  0  0  0  0
   -4.1308    7.4614    1.4784 C   0  0  0  0  0  0  0  0  0  0  0  0
   -3.2955    8.5443    1.7317 C   0  0  0  0  0  0  0  0  0  0  0  0
   -2.5671    8.6178    2.9035 C   0  0  0  0  0  0  0  0  0  0  0  0
   -2.6544    7.6158    3.8636 C   0  0  0  0  0  0  0  0  0  0  0  0
   -1.7500    7.6059    5.3794 S   0  0  0  0  0  0  0  0  0  0  0  0
   -0.1816    8.4247    4.9196 C   0  0  0  0  0  0  0  0  0  0  0  0
    0.5809    7.6465    3.8656 C   0  0  0  0  0  0  0  0  0  0  0  0
   -3.5363    6.5633    3.6188 C   0  0  0  0  0  0  0  0  0  0  0  0
   -3.6771    5.5893    4.5390 F   0  0  0  0  0  0  0  0  0  0  0  0
   -4.2586    6.4710    2.4499 C   0  0  0  0  0  0  0  0  0  0  0  0
   -5.6990    8.2837   -0.3018 C   0  0  0  0  0  0  0  0  0  0  0  0
   -6.4173    8.1231   -1.5142 C   0  0  0  0  0  0  0  0  0  0  0  0
   -6.2649    6.9530   -2.2783 C   0  0  0  0  0  0  0  0  0  0  0  0
   -7.0080    6.7491   -3.5280 C   0  0  0  0  0  0  0  0  0  0  0  0
   -8.3923    6.8866   -3.5719 C   0  0  0  0  0  0  0  0  0  0  0  0
   -9.0936    6.6974   -4.7472 C   0  0  0  0  0  0  0  0  0  0  0  0
   -8.4322    6.3761   -5.9272 C   0  0  0  0  0  0  0  0  0  0  0  0
   -9.1940    6.1041   -7.4915 S   0  0  0  0  0  0  0  0  0  0  0  0
  -10.8844    6.7646   -7.2893 C   0  0  0  0  0  0  0  0  0  0  0  0
  -10.9046    8.2785   -7.1947 C   0  0  0  0  0  0  0  0  0  0  0  0
   -7.0450    6.2272   -5.8645 C   0  0  0  0  0  0  0  0  0  0  0  0
   -6.3358    6.4021   -4.6983 C   0  0  0  0  0  0  0  0  0  0  0  0
   -6.3714    5.9118   -6.9879 F   0  0  0  0  0  0  0  0  0  0  0  0
   -5.3758    6.0046   -1.7947 C   0  0  0  0  0  0  0  0  0  0  0  0
   -5.0015    4.4714   -2.5405 S   0  0  0  0  0  0  0  0  0  0  0  0
   -7.2268    9.2507   -1.8012 C   0  0  0  0  0  0  0  0  0  0  0  0
   -7.1608   10.2352   -0.8565 C   0  0  0  0  0  0  0  0  0  0  0  0
   -6.0762    9.8042    0.4604 S   0  0  0  0  0  0  0  0  0  0  0  0
   -7.8555   11.4779   -0.7972 C   0  0  0  0  0  0  0  0  0  0  0  0
   -8.1190   12.2259    0.7373 S   0  0  0  0  0  0  0  0  0  0  0  0
   -9.0530   13.5150    0.0675 C   0  0  0  0  0  0  0  0  0  0  0  0
   -9.1105   13.4037   -1.3228 C   0  0  0  0  0  0  0  0  0  0  0  0
   -8.4273   12.2418   -1.8202 C   0  0  0  0  0  0  0  0  0  0  0  0
   -8.3440   12.0260   -3.2135 C   0  0  0  0  0  0  0  0  0  0  0  0
   -8.9319   12.9029   -4.0753 C   0  0  0  0  0  0  0  0  0  0  0  0
   -9.5961   14.0359   -3.5679 C   0  0  0  0  0  0  0  0  0  0  0  0
  -10.1387   14.8945   -4.4582 F   0  0  0  0  0  0  0  0  0  0  0  0
   -9.6856   14.3126   -2.2380 C   0  0  0  0  0  0  0  0  0  0  0  0
   -9.6303   14.4666    0.9765 C   0  0  0  0  0  0  0  0  0  0  0  0
  -10.7212   15.2039    0.7738 C   0  0  0  0  0  0  0  0  0  0  0  0
   11.7803   -5.7878    6.3760 H   0  0  0  0  0  0  0  0  0  0  0  0
   12.1675   -3.7632    4.5029 H   0  0  0  0  0  0  0  0  0  0  0  0
   11.7818   -3.0881    2.1364 H   0  0  0  0  0  0  0  0  0  0  0  0
    9.8672   -6.7998    1.2793 H   0  0  0  0  0  0  0  0  0  0  0  0
    8.9892   -8.6429    2.3799 H   0  0  0  0  0  0  0  0  0  0  0  0
    9.3328  -10.0859    5.0509 H   0  0  0  0  0  0  0  0  0  0  0  0
    9.0547  -12.1839    5.8044 H   0  0  0  0  0  0  0  0  0  0  0  0
    8.3078  -14.4409    6.5041 H   0  0  0  0  0  0  0  0  0  0  0  0
    5.5527  -14.6422    3.2580 H   0  0  0  0  0  0  0  0  0  0  0  0
    5.2676  -13.6635    1.3177 H   0  0  0  0  0  0  0  0  0  0  0  0
    3.9095  -12.6710   -0.2003 H   0  0  0  0  0  0  0  0  0  0  0  0
    4.8707   -9.4275    1.8458 H   0  0  0  0  0  0  0  0  0  0  0  0
    6.1710   -7.4828    0.9594 H   0  0  0  0  0  0  0  0  0  0  0  0
    7.8432   -6.6875    2.5873 H   0  0  0  0  0  0  0  0  0  0  0  0
    6.7243   -3.1591    4.6008 H   0  0  0  0  0  0  0  0  0  0  0  0
    6.5917   -3.6253    6.3153 H   0  0  0  0  0  0  0  0  0  0  0  0
    9.0528   -3.2627    6.5885 H   0  0  0  0  0  0  0  0  0  0  0  0
    8.2688   -1.7838    6.0183 H   0  0  0  0  0  0  0  0  0  0  0  0
    9.1782   -2.8016    4.8895 H   0  0  0  0  0  0  0  0  0  0  0  0
    3.0919   -5.6674    3.3226 H   0  0  0  0  0  0  0  0  0  0  0  0
    0.1765   -9.9229   -1.4850 H   0  0  0  0  0  0  0  0  0  0  0  0
   -1.1234  -10.5541   -3.4299 H   0  0  0  0  0  0  0  0  0  0  0  0
   -2.0893  -11.3217   -5.1634 H   0  0  0  0  0  0  0  0  0  0  0  0
   -3.0239  -10.8278   -6.5811 H   0  0  0  0  0  0  0  0  0  0  0  0
   -3.3168   -9.5363   -3.8150 H   0  0  0  0  0  0  0  0  0  0  0  0
   -4.2557   -9.1451   -5.2563 H   0  0  0  0  0  0  0  0  0  0  0  0
   -4.4300  -10.7297   -4.4947 H   0  0  0  0  0  0  0  0  0  0  0  0
    1.6287   -6.4678   -3.5588 H   0  0  0  0  0  0  0  0  0  0  0  0
    0.2408   -5.4657   -1.8212 H   0  0  0  0  0  0  0  0  0  0  0  0
   -0.8791   -3.4012   -2.0240 H   0  0  0  0  0  0  0  0  0  0  0  0
   -0.7837   -2.0143   -4.0481 H   0  0  0  0  0  0  0  0  0  0  0  0
   -1.8717   -3.2472   -5.8339 H   0  0  0  0  0  0  0  0  0  0  0  0
   -2.7129   -4.2730   -7.4921 H   0  0  0  0  0  0  0  0  0  0  0  0
   -4.0721   -5.3073   -7.9478 H   0  0  0  0  0  0  0  0  0  0  0  0
   -2.6044   -5.4973   -5.2626 H   0  0  0  0  0  0  0  0  0  0  0  0
   -2.3651   -6.5936   -6.6252 H   0  0  0  0  0  0  0  0  0  0  0  0
   -3.9303   -6.5280   -5.8009 H   0  0  0  0  0  0  0  0  0  0  0  0
   -4.6060   -1.0165   -2.3899 H   0  0  0  0  0  0  0  0  0  0  0  0
    0.1087    0.0080    2.6506 H   0  0  0  0  0  0  0  0  0  0  0  0
    1.3700    1.3496    4.2797 H   0  0  0  0  0  0  0  0  0  0  0  0
    4.8879    4.2491    3.9863 H   0  0  0  0  0  0  0  0  0  0  0  0
    4.1299    4.0306    2.3975 H   0  0  0  0  0  0  0  0  0  0  0  0
    4.9350    6.3932    2.7289 H   0  0  0  0  0  0  0  0  0  0  0  0
    3.1790    6.3406    2.5442 H   0  0  0  0  0  0  0  0  0  0  0  0
    3.8928    6.5352    4.1506 H   0  0  0  0  0  0  0  0  0  0  0  0
    0.6632    3.0992   -0.2632 H   0  0  0  0  0  0  0  0  0  0  0  0
   -1.7286    3.2492    0.3418 H   0  0  0  0  0  0  0  0  0  0  0  0
   -3.1800    5.0194    0.5529 H   0  0  0  0  0  0  0  0  0  0  0  0
   -3.1966    9.3262    0.9943 H   0  0  0  0  0  0  0  0  0  0  0  0
   -1.9214    9.4656    3.0681 H   0  0  0  0  0  0  0  0  0  0  0  0
   -0.3927    9.4467    4.6069 H   0  0  0  0  0  0  0  0  0  0  0  0
    0.3714    8.4552    5.8581 H   0  0  0  0  0  0  0  0  0  0  0  0
    1.5258    8.1433    3.6543 H   0  0  0  0  0  0  0  0  0  0  0  0
    0.0101    7.5820    2.9409 H   0  0  0  0  0  0  0  0  0  0  0  0
    0.7865    6.6375    4.2162 H   0  0  0  0  0  0  0  0  0  0  0  0
   -4.9211    5.6319    2.3038 H   0  0  0  0  0  0  0  0  0  0  0  0
   -8.9331    7.1180   -2.6663 H   0  0  0  0  0  0  0  0  0  0  0  0
  -10.1671    6.7943   -4.7319 H   0  0  0  0  0  0  0  0  0  0  0  0
  -11.3970    6.4267   -8.1899 H   0  0  0  0  0  0  0  0  0  0  0  0
  -11.3478    6.2852   -6.4280 H   0  0  0  0  0  0  0  0  0  0  0  0
  -10.3482    8.6243   -6.3260 H   0  0  0  0  0  0  0  0  0  0  0  0
  -10.4565    8.7148   -8.0843 H   0  0  0  0  0  0  0  0  0  0  0  0
  -11.9310    8.6313   -7.1130 H   0  0  0  0  0  0  0  0  0  0  0  0
   -5.2635    6.2893   -4.7150 H   0  0  0  0  0  0  0  0  0  0  0  0
   -7.8599    9.3017   -2.6665 H   0  0  0  0  0  0  0  0  0  0  0  0
   -7.7857   11.1865   -3.5933 H   0  0  0  0  0  0  0  0  0  0  0  0
   -8.8795   12.7681   -5.1439 H   0  0  0  0  0  0  0  0  0  0  0  0
  -10.1525   15.2222   -1.9020 H   0  0  0  0  0  0  0  0  0  0  0  0
   -9.1262   14.5269    1.9337 H   0  0  0  0  0  0  0  0  0  0  0  0
  -11.0743   15.8830    1.5297 H   0  0  0  0  0  0  0  0  0  0  0  0
  -11.3102   15.1386   -0.1231 H   0  0  0  0  0  0  0  0  0  0  0  0
  1  2  1  0  0  0  0
  2  3  1  0  0  0  0
  3  4  2  0  0  0  0
  4  5  1  0  0  0  0
  5  6  1  0  0  0  0
  6  7  2  0  0  0  0
  7  8  1  0  0  0  0
  8  9  1  0  0  0  0
  8 10  2  0  0  0  0
  3 11  1  0  0  0  0
 11 12  2  0  0  0  0
 12 13  1  0  0  0  0
 13 14  1  0  0  0  0
 14 15  1  0  0  0  0
 15 16  2  0  0  0  0
 16 17  1  0  0  0  0
 17 18  1  0  0  0  0
 18 19  2  0  0  0  0
 19 20  1  0  0  0  0
 20 21  1  0  0  0  0
 20 22  2  0  0  0  0
 15 23  1  0  0  0  0
 23 24  2  0  0  0  0
 24 25  1  0  0  0  0
 25 26  2  0  0  0  0
 26 27  1  0  0  0  0
 27 28  2  0  0  0  0
 28 29  1  0  0  0  0
 29 30  2  0  0  0  0
 30 31  1  0  0  0  0
 31 32  2  0  0  0  0
 32 33  1  0  0  0  0
 33 34  1  0  0  0  0
 34 35  1  0  0  0  0
 32 36  1  0  0  0  0
 36 37  1  0  0  0  0
 36 38  2  0  0  0  0
 28 39  1  0  0  0  0
 39 40  2  0  0  0  0
 40 41  1  0  0  0  0
 41 42  1  0  0  0  0
 42 43  2  0  0  0  0
 43 44  1  0  0  0  0
 44 45  2  0  0  0  0
 45 46  1  0  0  0  0
 46 47  1  0  0  0  0
 47 48  1  0  0  0  0
 45 49  1  0  0  0  0
 49 50  2  0  0  0  0
 49 51  1  0  0  0  0
 41 52  2  0  0  0  0
 52 53  1  0  0  0  0
 40 54  1  0  0  0  0
 54 55  2  0  0  0  0
 55 56  1  0  0  0  0
 55 57  1  0  0  0  0
 57 58  2  0  0  0  0
 58 59  1  0  0  0  0
 59 60  2  0  0  0  0
 60 61  1  0  0  0  0
 61 62  2  0  0  0  0
 62 63  1  0  0  0  0
 63 64  2  0  0  0  0
 64 65  1  0  0  0  0
 65 66  1  0  0  0  0
 66 67  1  0  0  0  0
 64 68  1  0  0  0  0
 68 69  1  0  0  0  0
 68 70  2  0  0  0  0
 60 71  1  0  0  0  0
 71 72  2  0  0  0  0
 72 73  1  0  0  0  0
 73 74  1  0  0  0  0
 74 75  2  0  0  0  0
 75 76  1  0  0  0  0
 76 77  2  0  0  0  0
 77 78  1  0  0  0  0
 78 79  1  0  0  0  0
 79 80  1  0  0  0  0
 77 81  1  0  0  0  0
 81 82  2  0  0  0  0
 81 83  1  0  0  0  0
 73 84  2  0  0  0  0
 84 85  1  0  0  0  0
 72 86  1  0  0  0  0
 86 87  2  0  0  0  0
 87 88  1  0  0  0  0
 87 89  1  0  0  0  0
 89 90  2  0  0  0  0
 90 91  1  0  0  0  0
 91 92  2  0  0  0  0
 92 93  1  0  0  0  0
 93 94  2  0  0  0  0
 94 95  1  0  0  0  0
 95 96  2  0  0  0  0
 96 97  1  0  0  0  0
 97 98  1  0  0  0  0
 98 99  1  0  0  0  0
 96100  1  0  0  0  0
100101  1  0  0  0  0
100102  2  0  0  0  0
 92103  1  0  0  0  0
103104  2  0  0  0  0
104105  1  0  0  0  0
105106  1  0  0  0  0
106107  2  0  0  0  0
107108  1  0  0  0  0
108109  2  0  0  0  0
109110  1  0  0  0  0
110111  1  0  0  0  0
111112  1  0  0  0  0
109113  1  0  0  0  0
113114  2  0  0  0  0
113115  1  0  0  0  0
105116  2  0  0  0  0
116117  1  0  0  0  0
104118  1  0  0  0  0
118119  2  0  0  0  0
119120  1  0  0  0  0
119121  1  0  0  0  0
121122  1  0  0  0  0
122123  1  0  0  0  0
123124  2  0  0  0  0
124125  1  0  0  0  0
125126  1  0  0  0  0
126127  2  0  0  0  0
127128  1  0  0  0  0
128129  1  0  0  0  0
128130  2  0  0  0  0
123131  1  0  0  0  0
131132  2  0  0  0  0
  5  1  2  0  0  0  0
 17 13  2  0  0  0  0
 53 25  1  0  0  0  0
 85 57  1  0  0  0  0
117 89  1  0  0  0  0
125121  2  0  0  0  0
 10  4  1  0  0  0  0
 22 16  1  0  0  0  0
 52 27  1  0  0  0  0
 84 59  1  0  0  0  0
116 91  1  0  0  0  0
130124  1  0  0  0  0
 38 29  1  0  0  0  0
 56 39  1  0  0  0  0
 70 61  1  0  0  0  0
 88 71  1  0  0  0  0
102 93  1  0  0  0  0
120103  1  0  0  0  0
 50 42  1  0  0  0  0
 82 74  1  0  0  0  0
114106  1  0  0  0  0
  1133  1  0  0  0  0
  6134  1  0  0  0  0
  7135  1  0  0  0  0
 10136  1  0  0  0  0
 11137  1  0  0  0  0
 12138  1  0  0  0  0
 18139  1  0  0  0  0
 19140  1  0  0  0  0
 22141  1  0  0  0  0
 23142  1  0  0  0  0
 24143  1  0  0  0  0
 26144  1  0  0  0  0
 30145  1  0  0  0  0
 31146  1  0  0  0  0
 34147  1  0  0  0  0
 34148  1  0  0  0  0
 35149  1  0  0  0  0
 35150  1  0  0  0  0
 35151  1  0  0  0  0
 38152  1  0  0  0  0
 43153  1  0  0  0  0
 44154  1  0  0  0  0
 47155  1  0  0  0  0
 47156  1  0  0  0  0
 48157  1  0  0  0  0
 48158  1  0  0  0  0
 48159  1  0  0  0  0
 50160  1  0  0  0  0
 54161  1  0  0  0  0
 58162  1  0  0  0  0
 62163  1  0  0  0  0
 63164  1  0  0  0  0
 66165  1  0  0  0  0
 66166  1  0  0  0  0
 67167  1  0  0  0  0
 67168  1  0  0  0  0
 67169  1  0  0  0  0
 70170  1  0  0  0  0
 75171  1  0  0  0  0
 76172  1  0  0  0  0
 79173  1  0  0  0  0
 79174  1  0  0  0  0
 80175  1  0  0  0  0
 80176  1  0  0  0  0
 80177  1  0  0  0  0
 82178  1  0  0  0  0
 86179  1  0  0  0  0
 90180  1  0  0  0  0
 94181  1  0  0  0  0
 95182  1  0  0  0  0
 98183  1  0  0  0  0
 98184  1  0  0  0  0
 99185  1  0  0  0  0
 99186  1  0  0  0  0
 99187  1  0  0  0  0
102188  1  0  0  0  0
107189  1  0  0  0  0
108190  1  0  0  0  0
111191  1  0  0  0  0
111192  1  0  0  0  0
112193  1  0  0  0  0
112194  1  0  0  0  0
112195  1  0  0  0  0
114196  1  0  0  0  0
118197  1  0  0  0  0
126198  1  0  0  0  0
127199  1  0  0  0  0
130200  1  0  0  0  0
131201  1  0  0  0  0
132202  1  0  0  0  0
132203  1  0  0  0  0
M  END
