
  xtb     03052204373D
 energy: -196.148314864713 gnorm: 0.000189824749 xtb: 6.4.1 (unknown)
116127  0     0  0            999 V2000
    0.4252    2.2241    6.8120 C   0  0  0  0  0  0  0  0  0  0  0  0
   -0.7886    1.2486    6.1170 S   0  0  0  0  0  0  0  0  0  0  0  0
   -0.6079    1.9982    4.5546 C   0  0  0  0  0  0  0  0  0  0  0  0
    0.4114    2.9500    4.5899 C   0  0  0  0  0  0  0  0  0  0  0  0
    0.9856    3.0854    5.8966 C   0  0  0  0  0  0  0  0  0  0  0  0
    2.0272    4.0221    6.1062 C   0  0  0  0  0  0  0  0  0  0  0  0
    2.5091    4.7614    5.0723 C   0  0  0  0  0  0  0  0  0  0  0  0
    3.6077    5.7601    5.2488 C   0  0  0  0  0  0  0  0  0  0  0  0
    1.9761    4.5700    3.7531 C   0  0  0  0  0  0  0  0  0  0  0  0
    2.5756    5.3337    2.7978 O   0  0  0  0  0  0  0  0  0  0  0  0
    2.1366    5.2117    1.4688 C   0  0  0  0  0  0  0  0  0  0  0  0
    0.9595    3.6855    3.5156 C   0  0  0  0  0  0  0  0  0  0  0  0
   -1.4574    1.5876    3.4906 C   0  0  0  0  0  0  0  0  0  0  0  0
   -1.9187   -0.0790    3.3695 S   0  0  0  0  0  0  0  0  0  0  0  0
   -2.9243    0.1886    1.9773 C   0  0  0  0  0  0  0  0  0  0  0  0
   -2.9142    1.5498    1.6361 C   0  0  0  0  0  0  0  0  0  0  0  0
   -2.0853    2.3439    2.4939 C   0  0  0  0  0  0  0  0  0  0  0  0
   -2.0571    3.7460    2.3336 C   0  0  0  0  0  0  0  0  0  0  0  0
   -2.7743    4.3290    1.3307 C   0  0  0  0  0  0  0  0  0  0  0  0
   -3.5574    3.5281    0.4809 C   0  0  0  0  0  0  0  0  0  0  0  0
   -4.2715    4.1553   -0.4831 F   0  0  0  0  0  0  0  0  0  0  0  0
   -3.6561    2.1752    0.6161 C   0  0  0  0  0  0  0  0  0  0  0  0
   -3.6017   -0.8761    1.3459 C   0  0  0  0  0  0  0  0  0  0  0  0
   -3.5039   -2.1632    1.7782 C   0  0  0  0  0  0  0  0  0  0  0  0
   -4.0406   -3.3380    1.2112 C   0  0  0  0  0  0  0  0  0  0  0  0
   -3.3065   -4.8310    1.7212 S   0  0  0  0  0  0  0  0  0  0  0  0
   -4.1607   -5.7730    0.5485 C   0  0  0  0  0  0  0  0  0  0  0  0
   -5.0847   -4.9811   -0.1249 C   0  0  0  0  0  0  0  0  0  0  0  0
   -5.0162   -3.5925    0.2358 C   0  0  0  0  0  0  0  0  0  0  0  0
   -5.8970   -2.6831   -0.3830 C   0  0  0  0  0  0  0  0  0  0  0  0
   -6.7689   -3.1182   -1.3387 C   0  0  0  0  0  0  0  0  0  0  0  0
   -6.7871   -4.4776   -1.7044 C   0  0  0  0  0  0  0  0  0  0  0  0
   -7.6634   -4.8572   -2.6614 F   0  0  0  0  0  0  0  0  0  0  0  0
   -5.9808   -5.4104   -1.1278 C   0  0  0  0  0  0  0  0  0  0  0  0
   -3.7629   -7.1452    0.3097 C   0  0  0  0  0  0  0  0  0  0  0  0
   -2.5007   -7.4709   -0.0411 C   0  0  0  0  0  0  0  0  0  0  0  0
   -1.5031   -6.5187   -0.4205 C   0  0  0  0  0  0  0  0  0  0  0  0
   -1.9636   -5.0050   -1.1243 S   0  0  0  0  0  0  0  0  0  0  0  0
   -0.3316   -4.4354   -1.2335 C   0  0  0  0  0  0  0  0  0  0  0  0
    0.5548   -5.4035   -0.7517 C   0  0  0  0  0  0  0  0  0  0  0  0
   -0.1123   -6.5970   -0.3283 C   0  0  0  0  0  0  0  0  0  0  0  0
    0.6552   -7.6625    0.1900 C   0  0  0  0  0  0  0  0  0  0  0  0
    2.0089   -7.5559    0.3106 C   0  0  0  0  0  0  0  0  0  0  0  0
    2.8503   -8.6700    0.8454 C   0  0  0  0  0  0  0  0  0  0  0  0
    2.6583   -6.3335   -0.0531 C   0  0  0  0  0  0  0  0  0  0  0  0
    4.0051   -6.3250    0.1610 O   0  0  0  0  0  0  0  0  0  0  0  0
    4.7248   -5.1604   -0.1553 C   0  0  0  0  0  0  0  0  0  0  0  0
    1.9472   -5.2809   -0.5639 C   0  0  0  0  0  0  0  0  0  0  0  0
   -0.1740   -3.1006   -1.6875 C   0  0  0  0  0  0  0  0  0  0  0  0
   -1.4723   -1.9998   -1.3307 S   0  0  0  0  0  0  0  0  0  0  0  0
   -0.7174   -0.6853   -2.1713 C   0  0  0  0  0  0  0  0  0  0  0  0
    0.4943   -1.0966   -2.7335 C   0  0  0  0  0  0  0  0  0  0  0  0
    0.8014   -2.4673   -2.4609 C   0  0  0  0  0  0  0  0  0  0  0  0
    1.9357   -3.0460   -3.0707 C   0  0  0  0  0  0  0  0  0  0  0  0
    2.7616   -2.3055   -3.8636 C   0  0  0  0  0  0  0  0  0  0  0  0
    3.9747   -2.8932   -4.5114 C   0  0  0  0  0  0  0  0  0  0  0  0
    2.4531   -0.9324   -4.1207 C   0  0  0  0  0  0  0  0  0  0  0  0
    3.3383   -0.2970   -4.9408 O   0  0  0  0  0  0  0  0  0  0  0  0
    3.1045    1.0525   -5.2558 C   0  0  0  0  0  0  0  0  0  0  0  0
    1.3326   -0.3524   -3.5916 C   0  0  0  0  0  0  0  0  0  0  0  0
   -1.4226    0.5444   -2.2873 C   0  0  0  0  0  0  0  0  0  0  0  0
   -3.1510    0.4923   -2.4798 S   0  0  0  0  0  0  0  0  0  0  0  0
   -3.2633    2.1885   -2.6552 C   0  0  0  0  0  0  0  0  0  0  0  0
   -2.0361    2.7985   -2.5449 C   0  0  0  0  0  0  0  0  0  0  0  0
   -0.9736    1.8629   -2.3166 C   0  0  0  0  0  0  0  0  0  0  0  0
    0.3314    2.3624   -2.1048 C   0  0  0  0  0  0  0  0  0  0  0  0
    0.5904    3.6966   -2.2013 C   0  0  0  0  0  0  0  0  0  0  0  0
    1.9758    4.2439   -2.0548 C   0  0  0  0  0  0  0  0  0  0  0  0
   -0.4747    4.6199   -2.4709 C   0  0  0  0  0  0  0  0  0  0  0  0
   -0.0824    5.9266   -2.5318 O   0  0  0  0  0  0  0  0  0  0  0  0
   -1.0659    6.9016   -2.7710 C   0  0  0  0  0  0  0  0  0  0  0  0
   -1.7587    4.1846   -2.6229 C   0  0  0  0  0  0  0  0  0  0  0  0
    0.6688    2.1154    7.8497 H   0  0  0  0  0  0  0  0  0  0  0  0
    2.4360    4.1325    7.0995 H   0  0  0  0  0  0  0  0  0  0  0  0
    3.2785    6.7414    4.9111 H   0  0  0  0  0  0  0  0  0  0  0  0
    3.9102    5.8214    6.2905 H   0  0  0  0  0  0  0  0  0  0  0  0
    4.4672    5.4807    4.6413 H   0  0  0  0  0  0  0  0  0  0  0  0
    1.0815    5.4853    1.3639 H   0  0  0  0  0  0  0  0  0  0  0  0
    2.2817    4.1954    1.0893 H   0  0  0  0  0  0  0  0  0  0  0  0
    2.7498    5.9052    0.8950 H   0  0  0  0  0  0  0  0  0  0  0  0
    0.5784    3.5130    2.5226 H   0  0  0  0  0  0  0  0  0  0  0  0
   -1.4914    4.3486    3.0262 H   0  0  0  0  0  0  0  0  0  0  0  0
   -2.7783    5.3979    1.1862 H   0  0  0  0  0  0  0  0  0  0  0  0
   -4.3020    1.6056   -0.0308 H   0  0  0  0  0  0  0  0  0  0  0  0
   -4.1654   -0.6308    0.4600 H   0  0  0  0  0  0  0  0  0  0  0  0
   -2.8583   -2.3423    2.6318 H   0  0  0  0  0  0  0  0  0  0  0  0
   -5.8979   -1.6482   -0.0845 H   0  0  0  0  0  0  0  0  0  0  0  0
   -7.4551   -2.4436   -1.8257 H   0  0  0  0  0  0  0  0  0  0  0  0
   -6.0265   -6.4474   -1.4183 H   0  0  0  0  0  0  0  0  0  0  0  0
   -4.5065   -7.9190    0.4456 H   0  0  0  0  0  0  0  0  0  0  0  0
   -2.2125   -8.5130   -0.0832 H   0  0  0  0  0  0  0  0  0  0  0  0
    0.1559   -8.5694    0.4963 H   0  0  0  0  0  0  0  0  0  0  0  0
    2.2390   -9.5343    1.0902 H   0  0  0  0  0  0  0  0  0  0  0  0
    3.3813   -8.3413    1.7373 H   0  0  0  0  0  0  0  0  0  0  0  0
    3.6007   -8.9572    0.1104 H   0  0  0  0  0  0  0  0  0  0  0  0
    5.7634   -5.3801    0.0875 H   0  0  0  0  0  0  0  0  0  0  0  0
    4.6458   -4.9134   -1.2193 H   0  0  0  0  0  0  0  0  0  0  0  0
    4.3872   -4.3046    0.4382 H   0  0  0  0  0  0  0  0  0  0  0  0
    2.4176   -4.3417   -0.8004 H   0  0  0  0  0  0  0  0  0  0  0  0
    2.1251   -4.0990   -2.9333 H   0  0  0  0  0  0  0  0  0  0  0  0
    4.8707   -2.3854   -4.1561 H   0  0  0  0  0  0  0  0  0  0  0  0
    4.0544   -3.9550   -4.2932 H   0  0  0  0  0  0  0  0  0  0  0  0
    3.9295   -2.7508   -5.5896 H   0  0  0  0  0  0  0  0  0  0  0  0
    3.9397    1.3578   -5.8844 H   0  0  0  0  0  0  0  0  0  0  0  0
    3.0777    1.6773   -4.3570 H   0  0  0  0  0  0  0  0  0  0  0  0
    2.1687    1.1807   -5.8095 H   0  0  0  0  0  0  0  0  0  0  0  0
    1.0481    0.6557   -3.8399 H   0  0  0  0  0  0  0  0  0  0  0  0
   -4.2165    2.6505   -2.8145 H   0  0  0  0  0  0  0  0  0  0  0  0
    1.1246    1.6746   -1.8529 H   0  0  0  0  0  0  0  0  0  0  0  0
    2.3415    4.5820   -3.0247 H   0  0  0  0  0  0  0  0  0  0  0  0
    2.6538    3.4871   -1.6682 H   0  0  0  0  0  0  0  0  0  0  0  0
    1.9743    5.1062   -1.3927 H   0  0  0  0  0  0  0  0  0  0  0  0
   -1.5469    6.7562   -3.7437 H   0  0  0  0  0  0  0  0  0  0  0  0
   -0.5436    7.8571   -2.7660 H   0  0  0  0  0  0  0  0  0  0  0  0
   -1.8312    6.9013   -1.9881 H   0  0  0  0  0  0  0  0  0  0  0  0
   -2.5841    4.8556   -2.7938 H   0  0  0  0  0  0  0  0  0  0  0  0
  1  2  1  0  0  0  0
  2  3  1  0  0  0  0
  3  4  2  0  0  0  0
  4  5  1  0  0  0  0
  5  6  1  0  0  0  0
  6  7  2  0  0  0  0
  7  8  1  0  0  0  0
  7  9  1  0  0  0  0
  9 10  1  0  0  0  0
 10 11  1  0  0  0  0
  9 12  2  0  0  0  0
  3 13  1  0  0  0  0
 13 14  1  0  0  0  0
 14 15  1  0  0  0  0
 15 16  2  0  0  0  0
 16 17  1  0  0  0  0
 17 18  1  0  0  0  0
 18 19  2  0  0  0  0
 19 20  1  0  0  0  0
 20 21  1  0  0  0  0
 20 22  2  0  0  0  0
 15 23  1  0  0  0  0
 23 24  2  0  0  0  0
 24 25  1  0  0  0  0
 25 26  1  0  0  0  0
 26 27  1  0  0  0  0
 27 28  2  0  0  0  0
 28 29  1  0  0  0  0
 29 30  1  0  0  0  0
 30 31  2  0  0  0  0
 31 32  1  0  0  0  0
 32 33  1  0  0  0  0
 32 34  2  0  0  0  0
 27 35  1  0  0  0  0
 35 36  2  0  0  0  0
 36 37  1  0  0  0  0
 37 38  1  0  0  0  0
 38 39  1  0  0  0  0
 39 40  2  0  0  0  0
 40 41  1  0  0  0  0
 41 42  1  0  0  0  0
 42 43  2  0  0  0  0
 43 44  1  0  0  0  0
 43 45  1  0  0  0  0
 45 46  1  0  0  0  0
 46 47  1  0  0  0  0
 45 48  2  0  0  0  0
 39 49  1  0  0  0  0
 49 50  1  0  0  0  0
 50 51  1  0  0  0  0
 51 52  2  0  0  0  0
 52 53  1  0  0  0  0
 53 54  1  0  0  0  0
 54 55  2  0  0  0  0
 55 56  1  0  0  0  0
 55 57  1  0  0  0  0
 57 58  1  0  0  0  0
 58 59  1  0  0  0  0
 57 60  2  0  0  0  0
 51 61  1  0  0  0  0
 61 62  1  0  0  0  0
 62 63  1  0  0  0  0
 63 64  2  0  0  0  0
 64 65  1  0  0  0  0
 65 66  1  0  0  0  0
 66 67  2  0  0  0  0
 67 68  1  0  0  0  0
 67 69  1  0  0  0  0
 69 70  1  0  0  0  0
 70 71  1  0  0  0  0
 69 72  2  0  0  0  0
  5  1  2  0  0  0  0
 17 13  2  0  0  0  0
 29 25  2  0  0  0  0
 41 37  2  0  0  0  0
 53 49  2  0  0  0  0
 65 61  2  0  0  0  0
 12  4  1  0  0  0  0
 22 16  1  0  0  0  0
 34 28  1  0  0  0  0
 48 40  1  0  0  0  0
 60 52  1  0  0  0  0
 72 64  1  0  0  0  0
  1 73  1  0  0  0  0
  6 74  1  0  0  0  0
  8 75  1  0  0  0  0
  8 76  1  0  0  0  0
  8 77  1  0  0  0  0
 11 78  1  0  0  0  0
 11 79  1  0  0  0  0
 11 80  1  0  0  0  0
 12 81  1  0  0  0  0
 18 82  1  0  0  0  0
 19 83  1  0  0  0  0
 22 84  1  0  0  0  0
 23 85  1  0  0  0  0
 24 86  1  0  0  0  0
 30 87  1  0  0  0  0
 31 88  1  0  0  0  0
 34 89  1  0  0  0  0
 35 90  1  0  0  0  0
 36 91  1  0  0  0  0
 42 92  1  0  0  0  0
 44 93  1  0  0  0  0
 44 94  1  0  0  0  0
 44 95  1  0  0  0  0
 47 96  1  0  0  0  0
 47 97  1  0  0  0  0
 47 98  1  0  0  0  0
 48 99  1  0  0  0  0
 54100  1  0  0  0  0
 56101  1  0  0  0  0
 56102  1  0  0  0  0
 56103  1  0  0  0  0
 59104  1  0  0  0  0
 59105  1  0  0  0  0
 59106  1  0  0  0  0
 60107  1  0  0  0  0
 63108  1  0  0  0  0
 66109  1  0  0  0  0
 68110  1  0  0  0  0
 68111  1  0  0  0  0
 68112  1  0  0  0  0
 71113  1  0  0  0  0
 71114  1  0  0  0  0
 71115  1  0  0  0  0
 72116  1  0  0  0  0
M  END
