
  xtb     03052201453D
 energy: -150.718191027428 gnorm: 0.000134231575 xtb: 6.4.1 (unknown)
 72 83  0     0  0            999 V2000
    0.6618    4.1691   -0.0840 C   0  0  0  0  0  0  0  0  0  0  0  0
    0.8567    2.5427    0.4773 S   0  0  0  0  0  0  0  0  0  0  0  0
    1.0199    1.8726   -1.1340 C   0  0  0  0  0  0  0  0  0  0  0  0
    0.9310    2.9036   -2.0497 C   0  0  0  0  0  0  0  0  0  0  0  0
    0.7318    4.1812   -1.4394 C   0  0  0  0  0  0  0  0  0  0  0  0
    0.6710    5.1009   -2.4371 O   0  0  0  0  0  0  0  0  0  0  0  0
    0.8286    4.3599   -3.5676 C   0  0  0  0  0  0  0  0  0  0  0  0
    0.9817    3.0944   -3.4101 N   0  0  0  0  0  0  0  0  0  0  0  0
    1.1981    0.4912   -1.3541 C   0  0  0  0  0  0  0  0  0  0  0  0
    1.3259   -0.6639   -0.0429 S   0  0  0  0  0  0  0  0  0  0  0  0
    1.5004   -2.0655   -1.0979 C   0  0  0  0  0  0  0  0  0  0  0  0
    1.4608   -1.6144   -2.4136 C   0  0  0  0  0  0  0  0  0  0  0  0
    1.2903   -0.2099   -2.5389 C   0  0  0  0  0  0  0  0  0  0  0  0
    1.2524    0.0854   -3.8568 O   0  0  0  0  0  0  0  0  0  0  0  0
    1.4001   -1.1115   -4.4610 C   0  0  0  0  0  0  0  0  0  0  0  0
    1.5270   -2.1326   -3.6857 N   0  0  0  0  0  0  0  0  0  0  0  0
    1.5709   -3.3448   -0.5214 C   0  0  0  0  0  0  0  0  0  0  0  0
    1.5375   -3.4595    1.2093 S   0  0  0  0  0  0  0  0  0  0  0  0
    1.3482   -5.1824    1.2034 C   0  0  0  0  0  0  0  0  0  0  0  0
    1.4585   -5.6641   -0.1133 C   0  0  0  0  0  0  0  0  0  0  0  0
    1.5650   -4.6301   -1.0963 C   0  0  0  0  0  0  0  0  0  0  0  0
    1.6286   -4.9616   -2.4626 C   0  0  0  0  0  0  0  0  0  0  0  0
    1.5956   -6.2760   -2.8374 C   0  0  0  0  0  0  0  0  0  0  0  0
    1.4886   -7.2784   -1.8592 C   0  0  0  0  0  0  0  0  0  0  0  0
    1.4603   -8.5634   -2.2714 F   0  0  0  0  0  0  0  0  0  0  0  0
    1.4100   -7.0094   -0.5227 C   0  0  0  0  0  0  0  0  0  0  0  0
    1.1807   -5.9503    2.3863 C   0  0  0  0  0  0  0  0  0  0  0  0
    0.6296   -5.5624    3.5717 C   0  0  0  0  0  0  0  0  0  0  0  0
   -0.1227   -4.3848    3.8208 C   0  0  0  0  0  0  0  0  0  0  0  0
   -1.0737   -3.6323    2.5871 S   0  0  0  0  0  0  0  0  0  0  0  0
   -1.4405   -2.2448    3.5650 C   0  0  0  0  0  0  0  0  0  0  0  0
   -0.9839   -2.4533    4.8790 C   0  0  0  0  0  0  0  0  0  0  0  0
   -0.2487   -3.6717    5.0258 C   0  0  0  0  0  0  0  0  0  0  0  0
    0.3150   -3.9989    6.2742 C   0  0  0  0  0  0  0  0  0  0  0  0
    0.1358   -3.1628    7.3396 C   0  0  0  0  0  0  0  0  0  0  0  0
   -0.5930   -1.9727    7.1734 C   0  0  0  0  0  0  0  0  0  0  0  0
   -0.7463   -1.1741    8.2507 F   0  0  0  0  0  0  0  0  0  0  0  0
   -1.1451   -1.5971    5.9817 C   0  0  0  0  0  0  0  0  0  0  0  0
   -1.9206   -1.0650    2.9696 C   0  0  0  0  0  0  0  0  0  0  0  0
   -2.0734   -0.9421    1.6197 C   0  0  0  0  0  0  0  0  0  0  0  0
   -2.2922    0.2625    0.9301 C   0  0  0  0  0  0  0  0  0  0  0  0
   -2.2720    0.2853   -0.8294 S   0  0  0  0  0  0  0  0  0  0  0  0
   -2.3783    2.0255   -0.9469 C   0  0  0  0  0  0  0  0  0  0  0  0
   -2.4616    2.5516    0.3336 C   0  0  0  0  0  0  0  0  0  0  0  0
   -2.4128    1.5714    1.3574 C   0  0  0  0  0  0  0  0  0  0  0  0
   -2.4662    2.2211    2.5466 O   0  0  0  0  0  0  0  0  0  0  0  0
   -2.5412    3.5287    2.1950 C   0  0  0  0  0  0  0  0  0  0  0  0
   -2.5418    3.7853    0.9360 N   0  0  0  0  0  0  0  0  0  0  0  0
   -2.3145    2.6966   -2.1862 C   0  0  0  0  0  0  0  0  0  0  0  0
   -2.1569    1.8471   -3.7138 S   0  0  0  0  0  0  0  0  0  0  0  0
   -2.1003    3.2887   -4.6516 C   0  0  0  0  0  0  0  0  0  0  0  0
   -2.1889    4.3812   -3.8354 C   0  0  0  0  0  0  0  0  0  0  0  0
   -2.3128    4.0472   -2.4522 C   0  0  0  0  0  0  0  0  0  0  0  0
   -2.3727    5.2058   -1.7565 O   0  0  0  0  0  0  0  0  0  0  0  0
   -2.2838    6.1600   -2.7131 C   0  0  0  0  0  0  0  0  0  0  0  0
   -2.1790    5.7578   -3.9283 N   0  0  0  0  0  0  0  0  0  0  0  0
    0.5030    4.9661    0.6106 H   0  0  0  0  0  0  0  0  0  0  0  0
    0.8130    4.8763   -4.5068 H   0  0  0  0  0  0  0  0  0  0  0  0
    1.4050   -1.1440   -5.5326 H   0  0  0  0  0  0  0  0  0  0  0  0
    1.7029   -4.1754   -3.1959 H   0  0  0  0  0  0  0  0  0  0  0  0
    1.6495   -6.5668   -3.8742 H   0  0  0  0  0  0  0  0  0  0  0  0
    1.3205   -7.8103    0.1927 H   0  0  0  0  0  0  0  0  0  0  0  0
    1.5709   -6.9592    2.3326 H   0  0  0  0  0  0  0  0  0  0  0  0
    0.7590   -6.2234    4.4197 H   0  0  0  0  0  0  0  0  0  0  0  0
    0.8762   -4.9133    6.3850 H   0  0  0  0  0  0  0  0  0  0  0  0
    0.5417   -3.3901    8.3124 H   0  0  0  0  0  0  0  0  0  0  0  0
   -1.6978   -0.6756    5.8994 H   0  0  0  0  0  0  0  0  0  0  0  0
   -2.0679   -0.2038    3.6050 H   0  0  0  0  0  0  0  0  0  0  0  0
   -1.9359   -1.8147    0.9951 H   0  0  0  0  0  0  0  0  0  0  0  0
   -2.5960    4.2580    2.9790 H   0  0  0  0  0  0  0  0  0  0  0  0
   -1.9959    3.2359   -5.7146 H   0  0  0  0  0  0  0  0  0  0  0  0
   -2.3048    7.1854   -2.3997 H   0  0  0  0  0  0  0  0  0  0  0  0
  1  2  1  0  0  0  0
  2  3  1  0  0  0  0
  3  4  2  0  0  0  0
  4  5  1  0  0  0  0
  5  6  1  0  0  0  0
  6  7  1  0  0  0  0
  7  8  2  0  0  0  0
  3  9  1  0  0  0  0
  9 10  1  0  0  0  0
 10 11  1  0  0  0  0
 11 12  2  0  0  0  0
 12 13  1  0  0  0  0
 13 14  1  0  0  0  0
 14 15  1  0  0  0  0
 15 16  2  0  0  0  0
 11 17  1  0  0  0  0
 17 18  1  0  0  0  0
 18 19  1  0  0  0  0
 19 20  2  0  0  0  0
 20 21  1  0  0  0  0
 21 22  1  0  0  0  0
 22 23  2  0  0  0  0
 23 24  1  0  0  0  0
 24 25  1  0  0  0  0
 24 26  2  0  0  0  0
 19 27  1  0  0  0  0
 27 28  2  0  0  0  0
 28 29  1  0  0  0  0
 29 30  1  0  0  0  0
 30 31  1  0  0  0  0
 31 32  2  0  0  0  0
 32 33  1  0  0  0  0
 33 34  1  0  0  0  0
 34 35  2  0  0  0  0
 35 36  1  0  0  0  0
 36 37  1  0  0  0  0
 36 38  2  0  0  0  0
 31 39  1  0  0  0  0
 39 40  2  0  0  0  0
 40 41  1  0  0  0  0
 41 42  1  0  0  0  0
 42 43  1  0  0  0  0
 43 44  2  0  0  0  0
 44 45  1  0  0  0  0
 45 46  1  0  0  0  0
 46 47  1  0  0  0  0
 47 48  2  0  0  0  0
 43 49  1  0  0  0  0
 49 50  1  0  0  0  0
 50 51  1  0  0  0  0
 51 52  2  0  0  0  0
 52 53  1  0  0  0  0
 53 54  1  0  0  0  0
 54 55  1  0  0  0  0
 55 56  2  0  0  0  0
  5  1  2  0  0  0  0
 13  9  2  0  0  0  0
 21 17  2  0  0  0  0
 33 29  2  0  0  0  0
 45 41  2  0  0  0  0
 53 49  2  0  0  0  0
  8  4  1  0  0  0  0
 16 12  1  0  0  0  0
 26 20  1  0  0  0  0
 38 32  1  0  0  0  0
 48 44  1  0  0  0  0
 56 52  1  0  0  0  0
  1 57  1  0  0  0  0
  7 58  1  0  0  0  0
 15 59  1  0  0  0  0
 22 60  1  0  0  0  0
 23 61  1  0  0  0  0
 26 62  1  0  0  0  0
 27 63  1  0  0  0  0
 28 64  1  0  0  0  0
 34 65  1  0  0  0  0
 35 66  1  0  0  0  0
 38 67  1  0  0  0  0
 39 68  1  0  0  0  0
 40 69  1  0  0  0  0
 47 70  1  0  0  0  0
 51 71  1  0  0  0  0
 55 72  1  0  0  0  0
M  END
