
  xtb     03052201453D
 energy: -414.257418607139 gnorm: 0.000724928474 xtb: 6.4.1 (unknown)
236259  0     0  0            999 V2000
   -9.3623    7.0407   14.8456 C   0  0  0  0  0  0  0  0  0  0  0  0
   -9.7683    7.1963   13.5697 C   0  0  0  0  0  0  0  0  0  0  0  0
   -9.0380    6.3837   12.6516 C   0  0  0  0  0  0  0  0  0  0  0  0
   -9.2134    6.2705   11.2648 C   0  0  0  0  0  0  0  0  0  0  0  0
  -10.1662    7.1158   10.5348 C   0  0  0  0  0  0  0  0  0  0  0  0
  -10.1533    8.5014   10.6889 C   0  0  0  0  0  0  0  0  0  0  0  0
  -11.0191    9.2951    9.9679 C   0  0  0  0  0  0  0  0  0  0  0  0
  -11.9408    8.7428    9.0805 C   0  0  0  0  0  0  0  0  0  0  0  0
  -13.0287    9.8545    8.2382 S   0  0  0  0  0  0  0  0  0  0  0  0
  -13.1091    9.1819    6.5367 C   0  0  0  0  0  0  0  0  0  0  0  0
  -11.7374    9.0817    5.9008 C   0  0  0  0  0  0  0  0  0  0  0  0
  -11.9646    7.3565    8.9626 C   0  0  0  0  0  0  0  0  0  0  0  0
  -12.8642    6.7458    8.1616 F   0  0  0  0  0  0  0  0  0  0  0  0
  -11.0848    6.5511    9.6569 C   0  0  0  0  0  0  0  0  0  0  0  0
   -8.4199    5.3393   10.6105 C   0  0  0  0  0  0  0  0  0  0  0  0
   -7.4518    4.5452   11.2734 C   0  0  0  0  0  0  0  0  0  0  0  0
   -7.2589    4.6759   12.6582 C   0  0  0  0  0  0  0  0  0  0  0  0
   -6.2438    3.8856   13.3644 C   0  0  0  0  0  0  0  0  0  0  0  0
   -5.3152    4.5010   14.2028 C   0  0  0  0  0  0  0  0  0  0  0  0
   -4.3355    3.7621   14.8288 C   0  0  0  0  0  0  0  0  0  0  0  0
   -4.2468    2.3808   14.6592 C   0  0  0  0  0  0  0  0  0  0  0  0
   -2.9592    1.5377   15.5219 S   0  0  0  0  0  0  0  0  0  0  0  0
   -2.5029    0.1704   14.3802 C   0  0  0  0  0  0  0  0  0  0  0  0
   -1.0676   -0.2370   14.6479 C   0  0  0  0  0  0  0  0  0  0  0  0
   -5.2083    1.7742   13.8563 C   0  0  0  0  0  0  0  0  0  0  0  0
   -6.1814    2.5046   13.2055 C   0  0  0  0  0  0  0  0  0  0  0  0
   -5.2280    0.4305   13.6905 F   0  0  0  0  0  0  0  0  0  0  0  0
   -8.0636    5.5978   13.3128 C   0  0  0  0  0  0  0  0  0  0  0  0
   -8.0689    5.9055   15.0308 S   0  0  0  0  0  0  0  0  0  0  0  0
   -6.7336    3.7250   10.3663 C   0  0  0  0  0  0  0  0  0  0  0  0
   -7.1285    3.8672    9.0690 C   0  0  0  0  0  0  0  0  0  0  0  0
   -8.4172    5.0383    8.8923 S   0  0  0  0  0  0  0  0  0  0  0  0
   -6.5865    3.1905    7.9320 C   0  0  0  0  0  0  0  0  0  0  0  0
   -5.8055    2.0721    7.9415 C   0  0  0  0  0  0  0  0  0  0  0  0
   -5.3548    1.6792    6.6564 C   0  0  0  0  0  0  0  0  0  0  0  0
   -4.5425    0.5823    6.3185 C   0  0  0  0  0  0  0  0  0  0  0  0
   -4.0328   -0.3453    7.3353 C   0  0  0  0  0  0  0  0  0  0  0  0
   -4.1557   -1.7230    7.1603 C   0  0  0  0  0  0  0  0  0  0  0  0
   -3.7075   -2.5981    8.1263 C   0  0  0  0  0  0  0  0  0  0  0  0
   -3.1157   -2.1389    9.2998 C   0  0  0  0  0  0  0  0  0  0  0  0
   -2.5597   -3.3410   10.4755 S   0  0  0  0  0  0  0  0  0  0  0  0
   -3.2240   -2.6817   12.0504 C   0  0  0  0  0  0  0  0  0  0  0  0
   -4.7324   -2.5464   12.0160 C   0  0  0  0  0  0  0  0  0  0  0  0
   -2.9629   -0.7634    9.4446 C   0  0  0  0  0  0  0  0  0  0  0  0
   -2.3575   -0.2459   10.5382 F   0  0  0  0  0  0  0  0  0  0  0  0
   -3.4169    0.1254    8.4916 C   0  0  0  0  0  0  0  0  0  0  0  0
   -4.2453    0.4203    4.9730 C   0  0  0  0  0  0  0  0  0  0  0  0
   -4.7358    1.2870    3.9662 C   0  0  0  0  0  0  0  0  0  0  0  0
   -5.5845    2.3559    4.2982 C   0  0  0  0  0  0  0  0  0  0  0  0
   -6.1439    3.2109    3.2435 C   0  0  0  0  0  0  0  0  0  0  0  0
   -6.8160    2.6350    2.1660 C   0  0  0  0  0  0  0  0  0  0  0  0
   -7.3022    3.4187    1.1412 C   0  0  0  0  0  0  0  0  0  0  0  0
   -7.1320    4.7993    1.1520 C   0  0  0  0  0  0  0  0  0  0  0  0
   -7.7569    5.7414   -0.2144 S   0  0  0  0  0  0  0  0  0  0  0  0
   -6.2664    6.6853   -0.7119 C   0  0  0  0  0  0  0  0  0  0  0  0
   -5.1309    5.7637   -1.1055 C   0  0  0  0  0  0  0  0  0  0  0  0
   -6.5003    5.3657    2.2545 C   0  0  0  0  0  0  0  0  0  0  0  0
   -6.0046    4.5936    3.2865 C   0  0  0  0  0  0  0  0  0  0  0  0
   -6.3433    6.7024    2.3379 F   0  0  0  0  0  0  0  0  0  0  0  0
   -5.8523    2.5403    5.6440 C   0  0  0  0  0  0  0  0  0  0  0  0
   -6.8480    3.8045    6.3142 S   0  0  0  0  0  0  0  0  0  0  0  0
   -4.2058    0.9743    2.6912 C   0  0  0  0  0  0  0  0  0  0  0  0
   -3.3472   -0.0863    2.7012 C   0  0  0  0  0  0  0  0  0  0  0  0
   -3.1718   -0.7796    4.2998 S   0  0  0  0  0  0  0  0  0  0  0  0
   -2.6003   -0.5880    1.5919 C   0  0  0  0  0  0  0  0  0  0  0  0
   -2.5570   -0.0573    0.3348 C   0  0  0  0  0  0  0  0  0  0  0  0
   -1.6619   -0.7272   -0.5334 C   0  0  0  0  0  0  0  0  0  0  0  0
   -1.3480   -0.4012   -1.8638 C   0  0  0  0  0  0  0  0  0  0  0  0
   -1.9336    0.7802   -2.5107 C   0  0  0  0  0  0  0  0  0  0  0  0
   -2.5757    0.6924   -3.7414 C   0  0  0  0  0  0  0  0  0  0  0  0
   -3.1442    1.8058   -4.3305 C   0  0  0  0  0  0  0  0  0  0  0  0
   -3.0869    3.0491   -3.7110 C   0  0  0  0  0  0  0  0  0  0  0  0
   -3.7590    4.5438   -4.3610 S   0  0  0  0  0  0  0  0  0  0  0  0
   -5.0330    3.9757   -5.5402 C   0  0  0  0  0  0  0  0  0  0  0  0
   -6.1932    3.2892   -4.8452 C   0  0  0  0  0  0  0  0  0  0  0  0
   -2.4111    3.1278   -2.4923 C   0  0  0  0  0  0  0  0  0  0  0  0
   -2.3074    4.3219   -1.8732 F   0  0  0  0  0  0  0  0  0  0  0  0
   -1.8471    2.0259   -1.8910 C   0  0  0  0  0  0  0  0  0  0  0  0
   -0.4310   -1.2189   -2.5022 C   0  0  0  0  0  0  0  0  0  0  0  0
    0.2050   -2.3149   -1.8653 C   0  0  0  0  0  0  0  0  0  0  0  0
   -0.1035   -2.6364   -0.5331 C   0  0  0  0  0  0  0  0  0  0  0  0
    0.5532   -3.7503    0.1611 C   0  0  0  0  0  0  0  0  0  0  0  0
    1.9391   -3.8768    0.1717 C   0  0  0  0  0  0  0  0  0  0  0  0
    2.5579   -4.9283    0.8202 C   0  0  0  0  0  0  0  0  0  0  0  0
    1.8105   -5.8937    1.4854 C   0  0  0  0  0  0  0  0  0  0  0  0
    2.4527   -7.3037    2.3196 S   0  0  0  0  0  0  0  0  0  0  0  0
    4.2581   -7.0347    2.3510 C   0  0  0  0  0  0  0  0  0  0  0  0
    4.6661   -5.9723    3.3543 C   0  0  0  0  0  0  0  0  0  0  0  0
    0.4210   -5.7494    1.4720 C   0  0  0  0  0  0  0  0  0  0  0  0
   -0.2074   -4.7060    0.8324 C   0  0  0  0  0  0  0  0  0  0  0  0
   -0.3360   -6.6702    2.1001 F   0  0  0  0  0  0  0  0  0  0  0  0
   -1.0437   -1.8352    0.0973 C   0  0  0  0  0  0  0  0  0  0  0  0
   -1.5564   -1.9828    1.7579 S   0  0  0  0  0  0  0  0  0  0  0  0
    1.1381   -2.9503   -2.7221 C   0  0  0  0  0  0  0  0  0  0  0  0
    1.2483   -2.3622   -3.9465 C   0  0  0  0  0  0  0  0  0  0  0  0
    0.1581   -0.9996   -4.1305 S   0  0  0  0  0  0  0  0  0  0  0  0
    2.1696   -2.6921   -4.9827 C   0  0  0  0  0  0  0  0  0  0  0  0
    2.2466   -2.1720   -6.2402 C   0  0  0  0  0  0  0  0  0  0  0  0
    3.3577   -2.6427   -6.9836 C   0  0  0  0  0  0  0  0  0  0  0  0
    3.7193   -2.3190   -8.3032 C   0  0  0  0  0  0  0  0  0  0  0  0
    2.9442   -1.3636   -9.1037 C   0  0  0  0  0  0  0  0  0  0  0  0
    2.6133   -0.1042   -8.6053 C   0  0  0  0  0  0  0  0  0  0  0  0
    1.8809    0.7805   -9.3664 C   0  0  0  0  0  0  0  0  0  0  0  0
    1.4577    0.4568  -10.6553 C   0  0  0  0  0  0  0  0  0  0  0  0
    0.5624    1.7008  -11.5361 S   0  0  0  0  0  0  0  0  0  0  0  0
   -0.6605    0.7765  -12.5383 C   0  0  0  0  0  0  0  0  0  0  0  0
   -1.5676   -0.0829  -11.6811 C   0  0  0  0  0  0  0  0  0  0  0  0
    1.8278   -0.7889  -11.1525 C   0  0  0  0  0  0  0  0  0  0  0  0
    1.4951   -1.1656  -12.4073 F   0  0  0  0  0  0  0  0  0  0  0  0
    2.5440   -1.6926  -10.3940 C   0  0  0  0  0  0  0  0  0  0  0  0
    4.8571   -2.9312   -8.8022 C   0  0  0  0  0  0  0  0  0  0  0  0
    5.6487   -3.8368   -8.0533 C   0  0  0  0  0  0  0  0  0  0  0  0
    5.2701   -4.1853   -6.7440 C   0  0  0  0  0  0  0  0  0  0  0  0
    6.0414   -5.1566   -5.9607 C   0  0  0  0  0  0  0  0  0  0  0  0
    6.4440   -4.8787   -4.6555 C   0  0  0  0  0  0  0  0  0  0  0  0
    7.1782   -5.7971   -3.9371 C   0  0  0  0  0  0  0  0  0  0  0  0
    7.5277   -7.0334   -4.4778 C   0  0  0  0  0  0  0  0  0  0  0  0
    8.4299   -8.1414   -3.4359 S   0  0  0  0  0  0  0  0  0  0  0  0
    9.6086   -8.9722   -4.5644 C   0  0  0  0  0  0  0  0  0  0  0  0
   10.5036   -7.9824   -5.2824 C   0  0  0  0  0  0  0  0  0  0  0  0
    7.0896   -7.3106   -5.7694 C   0  0  0  0  0  0  0  0  0  0  0  0
    6.3761   -6.3906   -6.5100 C   0  0  0  0  0  0  0  0  0  0  0  0
    7.3466   -8.5044   -6.3497 F   0  0  0  0  0  0  0  0  0  0  0  0
    4.1376   -3.5653   -6.2409 C   0  0  0  0  0  0  0  0  0  0  0  0
    3.4651   -3.8279   -4.6530 S   0  0  0  0  0  0  0  0  0  0  0  0
    6.8072   -4.2307   -8.7577 C   0  0  0  0  0  0  0  0  0  0  0  0
    6.9218   -3.6820  -10.0097 C   0  0  0  0  0  0  0  0  0  0  0  0
    5.5574   -2.6378  -10.3731 S   0  0  0  0  0  0  0  0  0  0  0  0
    8.0035   -3.8911  -10.9023 C   0  0  0  0  0  0  0  0  0  0  0  0
    9.3544   -4.8251  -10.3447 S   0  0  0  0  0  0  0  0  0  0  0  0
   10.2539   -4.6065  -11.8127 C   0  0  0  0  0  0  0  0  0  0  0  0
    9.4902   -3.8793  -12.7413 C   0  0  0  0  0  0  0  0  0  0  0  0
    8.2237   -3.4571  -12.2179 C   0  0  0  0  0  0  0  0  0  0  0  0
    7.3501   -2.7064  -13.0324 C   0  0  0  0  0  0  0  0  0  0  0  0
    7.7002   -2.4079  -14.3168 C   0  0  0  0  0  0  0  0  0  0  0  0
    8.9231   -2.8749  -14.8262 C   0  0  0  0  0  0  0  0  0  0  0  0
    9.2167   -2.6020  -16.1146 F   0  0  0  0  0  0  0  0  0  0  0  0
    9.8106   -3.5979  -14.0834 C   0  0  0  0  0  0  0  0  0  0  0  0
   11.5636   -5.1355  -11.8528 C   0  0  0  0  0  0  0  0  0  0  0  0
   12.5603   -4.7650  -12.7025 C   0  0  0  0  0  0  0  0  0  0  0  0
   13.8745   -5.2854  -12.7358 C   0  0  0  0  0  0  0  0  0  0  0  0
   15.0901   -4.3221  -13.5150 S   0  0  0  0  0  0  0  0  0  0  0  0
   16.3635   -5.4317  -13.1570 C   0  0  0  0  0  0  0  0  0  0  0  0
   15.8673   -6.5234  -12.4375 C   0  0  0  0  0  0  0  0  0  0  0  0
   14.4490   -6.4621  -12.2254 C   0  0  0  0  0  0  0  0  0  0  0  0
   13.7972   -7.5515  -11.6106 C   0  0  0  0  0  0  0  0  0  0  0  0
   14.5233   -8.6039  -11.1333 C   0  0  0  0  0  0  0  0  0  0  0  0
   15.9245   -8.5878  -11.2492 C   0  0  0  0  0  0  0  0  0  0  0  0
   16.6124   -9.6182  -10.7126 F   0  0  0  0  0  0  0  0  0  0  0  0
   16.6038   -7.5960  -11.8900 C   0  0  0  0  0  0  0  0  0  0  0  0
   17.6814   -5.1142  -13.6301 C   0  0  0  0  0  0  0  0  0  0  0  0
   18.6722   -5.9703  -13.8798 C   0  0  0  0  0  0  0  0  0  0  0  0
   -9.7433    7.5270   15.7224 H   0  0  0  0  0  0  0  0  0  0  0  0
  -10.5716    7.8458   13.2729 H   0  0  0  0  0  0  0  0  0  0  0  0
   -9.4347    8.9572   11.3528 H   0  0  0  0  0  0  0  0  0  0  0  0
  -10.9951   10.3684   10.0754 H   0  0  0  0  0  0  0  0  0  0  0  0
  -13.6207    8.2223    6.5585 H   0  0  0  0  0  0  0  0  0  0  0  0
  -13.7341    9.9059    6.0137 H   0  0  0  0  0  0  0  0  0  0  0  0
  -11.8367    8.7602    4.8661 H   0  0  0  0  0  0  0  0  0  0  0  0
  -11.2355   10.0469    5.9206 H   0  0  0  0  0  0  0  0  0  0  0  0
  -11.1162    8.3581    6.4257 H   0  0  0  0  0  0  0  0  0  0  0  0
  -11.1496    5.4820    9.5274 H   0  0  0  0  0  0  0  0  0  0  0  0
   -5.3436    5.5709   14.3377 H   0  0  0  0  0  0  0  0  0  0  0  0
   -3.6076    4.2451   15.4615 H   0  0  0  0  0  0  0  0  0  0  0  0
   -3.1863   -0.6601   14.5522 H   0  0  0  0  0  0  0  0  0  0  0  0
   -2.6200    0.5484   13.3656 H   0  0  0  0  0  0  0  0  0  0  0  0
   -0.3979    0.6066   14.4980 H   0  0  0  0  0  0  0  0  0  0  0  0
   -0.7792   -1.0357   13.9677 H   0  0  0  0  0  0  0  0  0  0  0  0
   -0.9547   -0.5909   15.6701 H   0  0  0  0  0  0  0  0  0  0  0  0
   -6.9100    1.9807   12.6057 H   0  0  0  0  0  0  0  0  0  0  0  0
   -5.9259    3.0833   10.6657 H   0  0  0  0  0  0  0  0  0  0  0  0
   -5.5787    1.5287    8.8396 H   0  0  0  0  0  0  0  0  0  0  0  0
   -4.6345   -2.1091    6.2741 H   0  0  0  0  0  0  0  0  0  0  0  0
   -3.8170   -3.6627    7.9918 H   0  0  0  0  0  0  0  0  0  0  0  0
   -2.7368   -1.7337   12.2630 H   0  0  0  0  0  0  0  0  0  0  0  0
   -2.9091   -3.4176   12.7899 H   0  0  0  0  0  0  0  0  0  0  0  0
   -5.0902   -2.1763   12.9741 H   0  0  0  0  0  0  0  0  0  0  0  0
   -5.0394   -1.8420   11.2448 H   0  0  0  0  0  0  0  0  0  0  0  0
   -5.1990   -3.5074   11.8115 H   0  0  0  0  0  0  0  0  0  0  0  0
   -3.2504    1.1808    8.6436 H   0  0  0  0  0  0  0  0  0  0  0  0
   -6.9591    1.5652    2.1396 H   0  0  0  0  0  0  0  0  0  0  0  0
   -7.8163    2.9714    0.3047 H   0  0  0  0  0  0  0  0  0  0  0  0
   -5.9898    7.3544    0.1002 H   0  0  0  0  0  0  0  0  0  0  0  0
   -6.6081    7.2775   -1.5602 H   0  0  0  0  0  0  0  0  0  0  0  0
   -4.7833    5.1858   -0.2507 H   0  0  0  0  0  0  0  0  0  0  0  0
   -4.2939    6.3427   -1.4882 H   0  0  0  0  0  0  0  0  0  0  0  0
   -5.4513    5.0720   -1.8811 H   0  0  0  0  0  0  0  0  0  0  0  0
   -5.5014    5.0797    4.1076 H   0  0  0  0  0  0  0  0  0  0  0  0
   -4.4347    1.5419    1.8085 H   0  0  0  0  0  0  0  0  0  0  0  0
   -3.1431    0.7906    0.0328 H   0  0  0  0  0  0  0  0  0  0  0  0
   -2.6473   -0.2629   -4.2387 H   0  0  0  0  0  0  0  0  0  0  0  0
   -3.6325    1.6971   -5.2854 H   0  0  0  0  0  0  0  0  0  0  0  0
   -4.5617    3.3409   -6.2892 H   0  0  0  0  0  0  0  0  0  0  0  0
   -5.3587    4.8970   -6.0227 H   0  0  0  0  0  0  0  0  0  0  0  0
   -5.8588    2.4005   -4.3133 H   0  0  0  0  0  0  0  0  0  0  0  0
   -6.9408    2.9939   -5.5787 H   0  0  0  0  0  0  0  0  0  0  0  0
   -6.6584    3.9644   -4.1306 H   0  0  0  0  0  0  0  0  0  0  0  0
   -1.3268    2.1460   -0.9536 H   0  0  0  0  0  0  0  0  0  0  0  0
    2.5466   -3.1291   -0.3156 H   0  0  0  0  0  0  0  0  0  0  0  0
    3.6335   -4.9895    0.7953 H   0  0  0  0  0  0  0  0  0  0  0  0
    4.6548   -8.0086    2.6379 H   0  0  0  0  0  0  0  0  0  0  0  0
    4.5948   -6.8101    1.3398 H   0  0  0  0  0  0  0  0  0  0  0  0
    4.2267   -5.0083    3.1074 H   0  0  0  0  0  0  0  0  0  0  0  0
    4.3341   -6.2525    4.3511 H   0  0  0  0  0  0  0  0  0  0  0  0
    5.7495   -5.8696    3.3641 H   0  0  0  0  0  0  0  0  0  0  0  0
   -1.2847   -4.6573    0.8434 H   0  0  0  0  0  0  0  0  0  0  0  0
    1.7109   -3.8169   -2.4447 H   0  0  0  0  0  0  0  0  0  0  0  0
    1.5214   -1.4757   -6.6218 H   0  0  0  0  0  0  0  0  0  0  0  0
    2.9466    0.1862   -7.6208 H   0  0  0  0  0  0  0  0  0  0  0  0
    1.6221    1.7522   -8.9750 H   0  0  0  0  0  0  0  0  0  0  0  0
   -0.1359    0.1929  -13.2911 H   0  0  0  0  0  0  0  0  0  0  0  0
   -1.2225    1.5694  -13.0321 H   0  0  0  0  0  0  0  0  0  0  0  0
   -1.0034   -0.8715  -11.1869 H   0  0  0  0  0  0  0  0  0  0  0  0
   -2.0581    0.5204  -10.9200 H   0  0  0  0  0  0  0  0  0  0  0  0
   -2.3287   -0.5465  -12.3054 H   0  0  0  0  0  0  0  0  0  0  0  0
    2.7786   -2.6541  -10.8236 H   0  0  0  0  0  0  0  0  0  0  0  0
    6.2061   -3.9237   -4.2138 H   0  0  0  0  0  0  0  0  0  0  0  0
    7.5023   -5.5711   -2.9332 H   0  0  0  0  0  0  0  0  0  0  0  0
   10.1856   -9.6084   -3.8932 H   0  0  0  0  0  0  0  0  0  0  0  0
    9.0539   -9.6002   -5.2579 H   0  0  0  0  0  0  0  0  0  0  0  0
   11.0246   -7.3492   -4.5672 H   0  0  0  0  0  0  0  0  0  0  0  0
   11.2405   -8.5200   -5.8756 H   0  0  0  0  0  0  0  0  0  0  0  0
    9.9246   -7.3464   -5.9494 H   0  0  0  0  0  0  0  0  0  0  0  0
    6.0528   -6.6635   -7.5028 H   0  0  0  0  0  0  0  0  0  0  0  0
    7.5573   -4.8822   -8.3458 H   0  0  0  0  0  0  0  0  0  0  0  0
    6.4006   -2.3778  -12.6444 H   0  0  0  0  0  0  0  0  0  0  0  0
    7.0494   -1.8392  -14.9612 H   0  0  0  0  0  0  0  0  0  0  0  0
   10.7135   -3.9677  -14.5373 H   0  0  0  0  0  0  0  0  0  0  0  0
   11.7890   -5.8325  -11.0581 H   0  0  0  0  0  0  0  0  0  0  0  0
   12.3920   -3.9302  -13.3680 H   0  0  0  0  0  0  0  0  0  0  0  0
   12.7228   -7.5669  -11.5395 H   0  0  0  0  0  0  0  0  0  0  0  0
   14.0498   -9.4490  -10.6599 H   0  0  0  0  0  0  0  0  0  0  0  0
   17.6777   -7.6263  -11.9528 H   0  0  0  0  0  0  0  0  0  0  0  0
   17.8335   -4.0623  -13.8420 H   0  0  0  0  0  0  0  0  0  0  0  0
   19.6221   -5.6190  -14.2427 H   0  0  0  0  0  0  0  0  0  0  0  0
   18.5688   -7.0340  -13.7646 H   0  0  0  0  0  0  0  0  0  0  0  0
  1  2  2  0  0  0  0
  2  3  1  0  0  0  0
  3  4  2  0  0  0  0
  4  5  1  0  0  0  0
  5  6  2  0  0  0  0
  6  7  1  0  0  0  0
  7  8  2  0  0  0  0
  8  9  1  0  0  0  0
  9 10  1  0  0  0  0
 10 11  1  0  0  0  0
  8 12  1  0  0  0  0
 12 13  1  0  0  0  0
 12 14  2  0  0  0  0
  4 15  1  0  0  0  0
 15 16  2  0  0  0  0
 16 17  1  0  0  0  0
 17 18  1  0  0  0  0
 18 19  2  0  0  0  0
 19 20  1  0  0  0  0
 20 21  2  0  0  0  0
 21 22  1  0  0  0  0
 22 23  1  0  0  0  0
 23 24  1  0  0  0  0
 21 25  1  0  0  0  0
 25 26  2  0  0  0  0
 25 27  1  0  0  0  0
 17 28  2  0  0  0  0
 28 29  1  0  0  0  0
 16 30  1  0  0  0  0
 30 31  2  0  0  0  0
 31 32  1  0  0  0  0
 31 33  1  0  0  0  0
 33 34  2  0  0  0  0
 34 35  1  0  0  0  0
 35 36  2  0  0  0  0
 36 37  1  0  0  0  0
 37 38  2  0  0  0  0
 38 39  1  0  0  0  0
 39 40  2  0  0  0  0
 40 41  1  0  0  0  0
 41 42  1  0  0  0  0
 42 43  1  0  0  0  0
 40 44  1  0  0  0  0
 44 45  1  0  0  0  0
 44 46  2  0  0  0  0
 36 47  1  0  0  0  0
 47 48  2  0  0  0  0
 48 49  1  0  0  0  0
 49 50  1  0  0  0  0
 50 51  2  0  0  0  0
 51 52  1  0  0  0  0
 52 53  2  0  0  0  0
 53 54  1  0  0  0  0
 54 55  1  0  0  0  0
 55 56  1  0  0  0  0
 53 57  1  0  0  0  0
 57 58  2  0  0  0  0
 57 59  1  0  0  0  0
 49 60  2  0  0  0  0
 60 61  1  0  0  0  0
 48 62  1  0  0  0  0
 62 63  2  0  0  0  0
 63 64  1  0  0  0  0
 63 65  1  0  0  0  0
 65 66  2  0  0  0  0
 66 67  1  0  0  0  0
 67 68  2  0  0  0  0
 68 69  1  0  0  0  0
 69 70  2  0  0  0  0
 70 71  1  0  0  0  0
 71 72  2  0  0  0  0
 72 73  1  0  0  0  0
 73 74  1  0  0  0  0
 74 75  1  0  0  0  0
 72 76  1  0  0  0  0
 76 77  1  0  0  0  0
 76 78  2  0  0  0  0
 68 79  1  0  0  0  0
 79 80  2  0  0  0  0
 80 81  1  0  0  0  0
 81 82  1  0  0  0  0
 82 83  2  0  0  0  0
 83 84  1  0  0  0  0
 84 85  2  0  0  0  0
 85 86  1  0  0  0  0
 86 87  1  0  0  0  0
 87 88  1  0  0  0  0
 85 89  1  0  0  0  0
 89 90  2  0  0  0  0
 89 91  1  0  0  0  0
 81 92  2  0  0  0  0
 92 93  1  0  0  0  0
 80 94  1  0  0  0  0
 94 95  2  0  0  0  0
 95 96  1  0  0  0  0
 95 97  1  0  0  0  0
 97 98  2  0  0  0  0
 98 99  1  0  0  0  0
 99100  2  0  0  0  0
100101  1  0  0  0  0
101102  2  0  0  0  0
102103  1  0  0  0  0
103104  2  0  0  0  0
104105  1  0  0  0  0
105106  1  0  0  0  0
106107  1  0  0  0  0
104108  1  0  0  0  0
108109  1  0  0  0  0
108110  2  0  0  0  0
100111  1  0  0  0  0
111112  2  0  0  0  0
112113  1  0  0  0  0
113114  1  0  0  0  0
114115  2  0  0  0  0
115116  1  0  0  0  0
116117  2  0  0  0  0
117118  1  0  0  0  0
118119  1  0  0  0  0
119120  1  0  0  0  0
117121  1  0  0  0  0
121122  2  0  0  0  0
121123  1  0  0  0  0
113124  2  0  0  0  0
124125  1  0  0  0  0
112126  1  0  0  0  0
126127  2  0  0  0  0
127128  1  0  0  0  0
127129  1  0  0  0  0
129130  1  0  0  0  0
130131  1  0  0  0  0
131132  2  0  0  0  0
132133  1  0  0  0  0
133134  1  0  0  0  0
134135  2  0  0  0  0
135136  1  0  0  0  0
136137  1  0  0  0  0
136138  2  0  0  0  0
131139  1  0  0  0  0
139140  2  0  0  0  0
140141  1  0  0  0  0
141142  1  0  0  0  0
142143  1  0  0  0  0
143144  2  0  0  0  0
144145  1  0  0  0  0
145146  1  0  0  0  0
146147  2  0  0  0  0
147148  1  0  0  0  0
148149  1  0  0  0  0
148150  2  0  0  0  0
143151  1  0  0  0  0
151152  2  0  0  0  0
 29  1  1  0  0  0  0
 61 33  1  0  0  0  0
 93 65  1  0  0  0  0
125 97  1  0  0  0  0
133129  2  0  0  0  0
145141  2  0  0  0  0
 28  3  1  0  0  0  0
 60 35  1  0  0  0  0
 92 67  1  0  0  0  0
124 99  1  0  0  0  0
138132  1  0  0  0  0
150144  1  0  0  0  0
 14  5  1  0  0  0  0
 32 15  1  0  0  0  0
 46 37  1  0  0  0  0
 64 47  1  0  0  0  0
 78 69  1  0  0  0  0
 96 79  1  0  0  0  0
110101  1  0  0  0  0
128111  1  0  0  0  0
 26 18  1  0  0  0  0
 58 50  1  0  0  0  0
 90 82  1  0  0  0  0
122114  1  0  0  0  0
  1153  1  0  0  0  0
  2154  1  0  0  0  0
  6155  1  0  0  0  0
  7156  1  0  0  0  0
 10157  1  0  0  0  0
 10158  1  0  0  0  0
 11159  1  0  0  0  0
 11160  1  0  0  0  0
 11161  1  0  0  0  0
 14162  1  0  0  0  0
 19163  1  0  0  0  0
 20164  1  0  0  0  0
 23165  1  0  0  0  0
 23166  1  0  0  0  0
 24167  1  0  0  0  0
 24168  1  0  0  0  0
 24169  1  0  0  0  0
 26170  1  0  0  0  0
 30171  1  0  0  0  0
 34172  1  0  0  0  0
 38173  1  0  0  0  0
 39174  1  0  0  0  0
 42175  1  0  0  0  0
 42176  1  0  0  0  0
 43177  1  0  0  0  0
 43178  1  0  0  0  0
 43179  1  0  0  0  0
 46180  1  0  0  0  0
 51181  1  0  0  0  0
 52182  1  0  0  0  0
 55183  1  0  0  0  0
 55184  1  0  0  0  0
 56185  1  0  0  0  0
 56186  1  0  0  0  0
 56187  1  0  0  0  0
 58188  1  0  0  0  0
 62189  1  0  0  0  0
 66190  1  0  0  0  0
 70191  1  0  0  0  0
 71192  1  0  0  0  0
 74193  1  0  0  0  0
 74194  1  0  0  0  0
 75195  1  0  0  0  0
 75196  1  0  0  0  0
 75197  1  0  0  0  0
 78198  1  0  0  0  0
 83199  1  0  0  0  0
 84200  1  0  0  0  0
 87201  1  0  0  0  0
 87202  1  0  0  0  0
 88203  1  0  0  0  0
 88204  1  0  0  0  0
 88205  1  0  0  0  0
 90206  1  0  0  0  0
 94207  1  0  0  0  0
 98208  1  0  0  0  0
102209  1  0  0  0  0
103210  1  0  0  0  0
106211  1  0  0  0  0
106212  1  0  0  0  0
107213  1  0  0  0  0
107214  1  0  0  0  0
107215  1  0  0  0  0
110216  1  0  0  0  0
115217  1  0  0  0  0
116218  1  0  0  0  0
119219  1  0  0  0  0
119220  1  0  0  0  0
120221  1  0  0  0  0
120222  1  0  0  0  0
120223  1  0  0  0  0
122224  1  0  0  0  0
126225  1  0  0  0  0
134226  1  0  0  0  0
135227  1  0  0  0  0
138228  1  0  0  0  0
139229  1  0  0  0  0
140230  1  0  0  0  0
146231  1  0  0  0  0
147232  1  0  0  0  0
150233  1  0  0  0  0
151234  1  0  0  0  0
152235  1  0  0  0  0
152236  1  0  0  0  0
M  END
