203

C          1.29640       -2.92050       -1.85320
C          2.23420       -2.60350       -0.93940
C          1.69010       -2.28270        0.33950
C          2.37910       -1.87750        1.49460
C          3.84170       -1.75970        1.54360
C          4.68250       -2.75890        1.06040
C          6.05740       -2.65040        1.15190
C          6.65240       -1.53210        1.72600
S          8.37390       -1.28130        1.97380
C          9.18580       -2.64880        1.08220
C          9.18150       -2.44660       -0.42020
C          5.79690       -0.53690        2.19990
F          6.32610        0.57880        2.75420
C          4.42950       -0.64020        2.12910
C          1.59990       -1.63290        2.61640
C          0.19280       -1.79800        2.64340
C         -0.50630       -2.14390        1.46980
C         -1.96820       -2.25910        1.47670
C         -2.75780       -1.31690        2.13520
C         -4.13200       -1.43070        2.18490
C         -4.78040       -2.50440        1.58570
S         -6.51200       -2.80040        1.61800
C         -7.12040       -1.74910        2.98660
C         -7.52610       -0.36130        2.52670
C         -3.98430       -3.43060        0.90710
C         -2.61350       -3.32430        0.84720
F         -4.57170       -4.48830        0.31860
C          0.27660       -2.38930        0.34710
S         -0.31080       -2.87090       -1.22620
C         -0.32250       -1.68020        3.95560
C          0.61870       -1.40230        4.91090
S          2.21510       -1.23150        4.20080
C          0.38270       -1.34060        6.30830
S         -1.11380       -1.97990        6.90680
C         -0.73060       -1.63840        8.56260
C          0.54750       -1.05750        8.63990
C          1.17410       -0.87550        7.36570
C          2.43900       -0.25560        7.29300
C          3.06070        0.15500        8.43620
C          2.43140       -0.04070        9.67840
F          3.07830        0.38090       10.78480
C          1.20340       -0.62230        9.80660
C         -1.52410       -2.05880        9.65990
C         -2.86180       -2.32160        9.72910
C         -3.87990       -1.95750        8.81940
S         -3.67870       -0.65670        7.70460
C         -5.28270       -0.77750        7.06760
C         -5.98830       -1.79210        7.75990
C         -5.20030       -2.44710        8.75370
C         -5.75660       -3.48930        9.51700
C         -7.05630       -3.86250        9.31470
C         -7.81470       -3.20680        8.33370
F         -9.09350       -3.59870        8.15520
C         -7.31740       -2.19740        7.55680
C         -5.80520        0.02680        6.04390
C         -5.27130        0.98040        5.21130
C         -3.98580        1.50240        4.97950
S         -2.50000        0.96680        5.70010
C         -1.51800        2.05770        4.79020
C         -2.31830        2.87140        3.98310
C         -3.70760        2.54790        4.06500
C         -4.62450        3.27780        3.28630
C         -4.18950        4.29710        2.48610
C         -2.82380        4.62560        2.45950
F         -2.44140        5.65650        1.67520
C         -1.88720        3.95060        3.18390
C         -0.10120        2.04940        5.00970
C          0.87740        2.03840        4.07870
C          0.74250        1.82070        2.67520
C          1.77070        1.70240        1.77880
C          1.37270        1.31400        0.47520
C          2.16590        1.03140       -0.65460
C          3.62590        1.15700       -0.62110
C          4.26320        2.24370       -0.02460
C          5.64070        2.32640        0.03740
C          6.44410        1.32400       -0.49610
S          8.20060        1.30020       -0.47470
C          8.64180        2.44470        0.87750
C          8.87540        3.86310        0.39150
C          5.79420        0.26000       -1.12140
F          6.52770       -0.73760       -1.66080
C          4.42590        0.16770       -1.19060
C          1.48640        0.60060       -1.78910
C          0.07500        0.47350       -1.86110
C         -0.71550        0.76050       -0.73770
C         -2.18180        0.68290       -0.74700
C         -2.94040        1.74840       -0.26870
C         -4.32080        1.70550       -0.26460
C         -4.99690        0.58960       -0.74280
S         -6.74600        0.41890       -0.82930
C         -7.35350        2.10340       -0.43620
C         -8.85330        2.14480       -0.66090
C         -4.22590       -0.48060       -1.19880
C         -2.85100       -0.44540       -1.21590
F         -4.84730       -1.58650       -1.65180
C         -0.03280        1.15550        0.39930
S         -0.79760        1.48150        1.92210
C         -0.36470        0.08650       -3.14980
C          0.65060       -0.09350       -4.04230
S          2.21630        0.22170       -3.32920
C          0.53570       -0.48710       -5.41050
C         -0.58910       -0.91860       -6.05010
C         -0.38830       -1.20040       -7.42540
C         -1.33610       -1.63600       -8.36600
C         -2.74520       -1.81670       -7.99890
C         -3.44360       -0.81380       -7.33060
C         -4.76490       -0.98250       -6.96670
C         -5.43740       -2.16690       -7.24900
S         -7.11570       -2.50130       -6.83680
C         -7.47720       -1.32910       -5.48180
C         -6.67220       -1.62310       -4.23260
C         -4.73300       -3.15270       -7.94290
F         -5.35450       -4.30710       -8.25200
C         -3.41730       -2.99540       -8.31620
C         -0.86980       -1.87100       -9.65220
C          0.47560       -1.65980      -10.04020
C          1.41720       -1.20710       -9.10480
C          2.81230       -0.93930       -9.47660
C          3.12200       -0.11230      -10.55550
C          4.43370        0.16150      -10.87530
C          5.48960       -0.38740      -10.14740
S          7.12430        0.00990      -10.67940
C          8.11800       -0.02180       -9.13340
C          9.34800        0.84280       -9.32670
C          5.16520       -1.23450       -9.09200
C          3.85520       -1.49560       -8.74470
F          6.13040       -1.84920       -8.37220
C          0.96080       -1.00440       -7.81100
S          1.92580       -0.43490       -6.47430
C          0.68200       -1.97880      -11.41560
C         -0.44650       -2.37740      -12.03610
S         -1.83500       -2.40570      -11.00440
H          1.43790       -3.19590       -2.88010
H          3.28640       -2.60250       -1.15260
H          4.25810       -3.65860        0.64120
H          6.66560       -3.45700        0.77670
H         10.20380       -2.63370        1.47300
H          8.71410       -3.58330        1.38410
H          9.71660       -3.26210       -0.90280
H          9.66860       -1.50860       -0.67470
H          8.16930       -2.41270       -0.81320
H          3.82550        0.15840        2.52250
H         -2.29680       -0.46030        2.59840
H         -4.69190       -0.67160        2.70640
H         -7.98800       -2.29210        3.36210
H         -6.35580       -1.72530        3.76220
H         -7.98800        0.18450        3.34830
H         -6.66430        0.19860        2.17110
H         -8.24250       -0.43730        1.71250
H         -2.05950       -4.09900        0.34170
H         -1.35640       -1.84020        4.20350
H          2.90770       -0.10650        6.33410
H          4.02790        0.63090        8.41330
H          0.75230       -0.73580       10.77860
H         -0.95500       -2.24100       10.56360
H         -3.21020       -2.82410       10.62280
H         -5.15590       -3.98890       10.26040
H         -7.51580       -4.65140        9.88790
H         -7.94650       -1.73440        6.81400
H         -6.86410       -0.14320        5.88810
H         -6.00910        1.43960        4.56420
H         -5.67810        3.04730        3.32730
H         -4.87330        4.87680        1.88590
H         -0.84750        4.23270        3.15300
H          0.19960        1.98490        6.04930
H          1.90220        2.09190        4.42360
H          2.79090        1.88690        2.05980
H          3.67460        3.05990        0.36600
H          6.08900        3.18510        0.50960
H          7.86090        2.37790        1.63210
H          9.55840        2.02440        1.29120
H          7.98690        4.27280       -0.08390
H          9.68590        3.88380       -0.33350
H          9.14510        4.50010        1.23190
H          3.99190       -0.69090       -1.67210
H         -2.44870        2.64210        0.08330
H         -4.86420        2.55640        0.11190
H         -7.11110        2.32210        0.60410
H         -6.84060        2.80310       -1.09570
H         -9.08990        1.90230       -1.69410
H         -9.35700        1.42830       -0.01650
H         -9.23360        3.13980       -0.44010
H         -2.31550       -1.30880       -1.57380
H         -1.40120       -0.03220       -3.40390
H         -1.53170       -1.05510       -5.55350
H         -2.95270        0.12410       -7.11670
H         -5.27500       -0.17570       -6.46530
H         -7.32730       -0.31370       -5.84840
H         -8.54190       -1.47800       -5.30200
H         -6.95920       -0.94320       -3.43360
H         -6.85170       -2.63970       -3.89320
H         -5.60580       -1.51150       -4.41480
H         -2.91860       -3.80350       -8.82710
H          2.32550        0.34310      -11.12410
H          4.67020        0.81460      -11.70100
H          7.48570        0.36500       -8.33580
H          8.39180       -1.05400       -8.92050
H          9.06340        1.86800       -9.55270
H          9.94560        0.83690       -8.41760
H          9.95530        0.46520      -10.14620
H          3.66430       -2.16290       -7.91890
H          1.64090       -1.91980      -11.89740
H         -0.56570       -2.67400      -13.05990
