
  xtb     03042223143D
 energy: -414.230054802678 gnorm: 0.000245679473 xtb: 6.4.1 (unknown)
236259  0     0  0            999 V2000
    3.6676    1.1051   11.3902 C   0  0  0  0  0  0  0  0  0  0  0  0
    2.3961   -0.0289   11.4092 S   0  0  0  0  0  0  0  0  0  0  0  0
    1.9848    0.2746    9.7483 C   0  0  0  0  0  0  0  0  0  0  0  0
    2.8327    1.2547    9.2139 C   0  0  0  0  0  0  0  0  0  0  0  0
    3.8009    1.7225   10.1637 C   0  0  0  0  0  0  0  0  0  0  0  0
    4.7418    2.7112    9.7874 C   0  0  0  0  0  0  0  0  0  0  0  0
    4.7133    3.2158    8.5234 C   0  0  0  0  0  0  0  0  0  0  0  0
    3.7451    2.7518    7.6084 C   0  0  0  0  0  0  0  0  0  0  0  0
    3.7527    3.2876    6.3676 F   0  0  0  0  0  0  0  0  0  0  0  0
    2.8172    1.8021    7.9175 C   0  0  0  0  0  0  0  0  0  0  0  0
    0.9570   -0.4251    9.0866 C   0  0  0  0  0  0  0  0  0  0  0  0
    0.0923   -1.3014    9.6663 C   0  0  0  0  0  0  0  0  0  0  0  0
   -0.8822   -2.0301    8.9559 C   0  0  0  0  0  0  0  0  0  0  0  0
   -0.9204   -2.0442    7.2243 S   0  0  0  0  0  0  0  0  0  0  0  0
   -2.3102   -3.0834    7.1501 C   0  0  0  0  0  0  0  0  0  0  0  0
   -2.7251   -3.4303    8.4447 C   0  0  0  0  0  0  0  0  0  0  0  0
   -1.9157   -2.8365    9.4655 C   0  0  0  0  0  0  0  0  0  0  0  0
   -2.1982   -3.0875   10.8220 C   0  0  0  0  0  0  0  0  0  0  0  0
   -3.2307   -3.9144   11.1594 C   0  0  0  0  0  0  0  0  0  0  0  0
   -3.9912   -4.5173   10.1428 C   0  0  0  0  0  0  0  0  0  0  0  0
   -4.9849   -5.3521   10.5139 F   0  0  0  0  0  0  0  0  0  0  0  0
   -3.7671   -4.3034    8.8139 C   0  0  0  0  0  0  0  0  0  0  0  0
   -2.7740   -3.4233    5.8573 C   0  0  0  0  0  0  0  0  0  0  0  0
   -3.9856   -3.9007    5.4810 C   0  0  0  0  0  0  0  0  0  0  0  0
   -4.2621   -4.2028    4.1150 C   0  0  0  0  0  0  0  0  0  0  0  0
   -3.3634   -4.4763    3.1229 C   0  0  0  0  0  0  0  0  0  0  0  0
   -3.9439   -4.6329    1.8431 C   0  0  0  0  0  0  0  0  0  0  0  0
   -3.2760   -4.8073    0.6179 C   0  0  0  0  0  0  0  0  0  0  0  0
   -1.8180   -4.6822    0.5273 C   0  0  0  0  0  0  0  0  0  0  0  0
   -1.1828   -3.6171    1.1631 C   0  0  0  0  0  0  0  0  0  0  0  0
    0.1791   -3.4223    1.0563 C   0  0  0  0  0  0  0  0  0  0  0  0
    0.9643   -4.2918    0.3077 C   0  0  0  0  0  0  0  0  0  0  0  0
    2.7083   -4.1735    0.1002 S   0  0  0  0  0  0  0  0  0  0  0  0
    3.2023   -2.7694    1.1583 C   0  0  0  0  0  0  0  0  0  0  0  0
    2.9833   -1.4235    0.4931 C   0  0  0  0  0  0  0  0  0  0  0  0
    0.3138   -5.3501   -0.3315 C   0  0  0  0  0  0  0  0  0  0  0  0
    1.0435   -6.2128   -1.0696 F   0  0  0  0  0  0  0  0  0  0  0  0
   -1.0449   -5.5532   -0.2372 C   0  0  0  0  0  0  0  0  0  0  0  0
   -4.0737   -4.9228   -0.5105 C   0  0  0  0  0  0  0  0  0  0  0  0
   -5.4795   -4.7412   -0.4800 C   0  0  0  0  0  0  0  0  0  0  0  0
   -6.1357   -4.4821    0.7355 C   0  0  0  0  0  0  0  0  0  0  0  0
   -7.5288   -4.0164    0.7603 C   0  0  0  0  0  0  0  0  0  0  0  0
   -7.8975   -2.9329   -0.0388 C   0  0  0  0  0  0  0  0  0  0  0  0
   -9.1718   -2.4134    0.0221 C   0  0  0  0  0  0  0  0  0  0  0  0
  -10.1297   -2.9643    0.8675 C   0  0  0  0  0  0  0  0  0  0  0  0
  -11.7535   -2.2526    0.8635 S   0  0  0  0  0  0  0  0  0  0  0  0
  -12.0883   -2.0250    2.6472 C   0  0  0  0  0  0  0  0  0  0  0  0
  -11.0414   -1.1489    3.3051 C   0  0  0  0  0  0  0  0  0  0  0  0
   -9.7589   -4.0606    1.6388 C   0  0  0  0  0  0  0  0  0  0  0  0
   -8.4762   -4.5726    1.6104 C   0  0  0  0  0  0  0  0  0  0  0  0
  -10.6549   -4.6596    2.4518 F   0  0  0  0  0  0  0  0  0  0  0  0
   -5.3551   -4.5012    1.8817 C   0  0  0  0  0  0  0  0  0  0  0  0
   -5.9109   -4.1915    3.5070 S   0  0  0  0  0  0  0  0  0  0  0  0
   -6.0348   -4.6785   -1.7843 C   0  0  0  0  0  0  0  0  0  0  0  0
   -5.1040   -4.7551   -2.7769 C   0  0  0  0  0  0  0  0  0  0  0  0
   -3.4904   -5.0521   -2.1468 S   0  0  0  0  0  0  0  0  0  0  0  0
   -5.1972   -4.1704   -4.0848 C   0  0  0  0  0  0  0  0  0  0  0  0
   -5.9034   -3.0226   -4.2960 C   0  0  0  0  0  0  0  0  0  0  0  0
   -5.3259   -2.1883   -5.2841 C   0  0  0  0  0  0  0  0  0  0  0  0
   -5.5255   -0.8013   -5.3412 C   0  0  0  0  0  0  0  0  0  0  0  0
   -6.5826   -0.2079   -4.4963 C   0  0  0  0  0  0  0  0  0  0  0  0
   -7.8374    0.1131   -4.9916 C   0  0  0  0  0  0  0  0  0  0  0  0
   -8.8480    0.5359   -4.1455 C   0  0  0  0  0  0  0  0  0  0  0  0
   -8.6341    0.6409   -2.7763 C   0  0  0  0  0  0  0  0  0  0  0  0
   -9.8441    1.1059   -1.5797 S   0  0  0  0  0  0  0  0  0  0  0  0
  -11.4358    0.8631   -2.4385 C   0  0  0  0  0  0  0  0  0  0  0  0
  -11.7352   -0.5999   -2.7031 C   0  0  0  0  0  0  0  0  0  0  0  0
   -7.3511    0.3608   -2.3036 C   0  0  0  0  0  0  0  0  0  0  0  0
   -7.0974    0.4761   -0.9819 F   0  0  0  0  0  0  0  0  0  0  0  0
   -6.3373   -0.0598   -3.1331 C   0  0  0  0  0  0  0  0  0  0  0  0
   -4.5183   -0.0724   -5.9384 C   0  0  0  0  0  0  0  0  0  0  0  0
   -3.4513   -0.6753   -6.6490 C   0  0  0  0  0  0  0  0  0  0  0  0
   -3.3496   -2.0786   -6.7409 C   0  0  0  0  0  0  0  0  0  0  0  0
   -2.2697   -2.6794   -7.5300 C   0  0  0  0  0  0  0  0  0  0  0  0
   -1.4521   -3.6985   -7.0521 C   0  0  0  0  0  0  0  0  0  0  0  0
   -0.4574   -4.2482   -7.8384 C   0  0  0  0  0  0  0  0  0  0  0  0
   -0.2407   -3.7996   -9.1360 C   0  0  0  0  0  0  0  0  0  0  0  0
    0.9593   -4.4262  -10.2603 S   0  0  0  0  0  0  0  0  0  0  0  0
    1.9573   -5.5874   -9.2658 C   0  0  0  0  0  0  0  0  0  0  0  0
    2.9129   -4.8745   -8.3275 C   0  0  0  0  0  0  0  0  0  0  0  0
   -1.0629   -2.7696   -9.6009 C   0  0  0  0  0  0  0  0  0  0  0  0
   -2.0525   -2.2103   -8.8274 C   0  0  0  0  0  0  0  0  0  0  0  0
   -0.8835   -2.3053  -10.8546 F   0  0  0  0  0  0  0  0  0  0  0  0
   -4.2285   -2.7986   -5.9395 C   0  0  0  0  0  0  0  0  0  0  0  0
   -3.9854   -4.4227   -5.3255 S   0  0  0  0  0  0  0  0  0  0  0  0
   -2.3563    0.2222   -6.8037 C   0  0  0  0  0  0  0  0  0  0  0  0
   -2.5309    1.3998   -6.1407 C   0  0  0  0  0  0  0  0  0  0  0  0
   -4.1791    1.6017   -5.5631 S   0  0  0  0  0  0  0  0  0  0  0  0
   -1.4688    2.0796   -5.4368 C   0  0  0  0  0  0  0  0  0  0  0  0
   -1.4300    2.0131   -4.0761 C   0  0  0  0  0  0  0  0  0  0  0  0
   -0.1466    2.2483   -3.5287 C   0  0  0  0  0  0  0  0  0  0  0  0
    0.2747    1.9892   -2.2152 C   0  0  0  0  0  0  0  0  0  0  0  0
   -0.6049    1.3608   -1.2192 C   0  0  0  0  0  0  0  0  0  0  0  0
   -0.6683    1.8286    0.0925 C   0  0  0  0  0  0  0  0  0  0  0  0
   -1.4647    1.2019    1.0284 C   0  0  0  0  0  0  0  0  0  0  0  0
   -2.2335    0.0906    0.6946 C   0  0  0  0  0  0  0  0  0  0  0  0
   -3.2281   -0.6682    1.9480 S   0  0  0  0  0  0  0  0  0  0  0  0
   -4.8184   -0.9346    1.0668 C   0  0  0  0  0  0  0  0  0  0  0  0
   -5.9669   -0.7258    2.0313 C   0  0  0  0  0  0  0  0  0  0  0  0
   -2.1464   -0.3826   -0.6113 C   0  0  0  0  0  0  0  0  0  0  0  0
   -2.8470   -1.4758   -0.9918 F   0  0  0  0  0  0  0  0  0  0  0  0
   -1.3525    0.2334   -1.5569 C   0  0  0  0  0  0  0  0  0  0  0  0
    1.6096    2.2442   -1.9412 C   0  0  0  0  0  0  0  0  0  0  0  0
    2.5252    2.7270   -2.9099 C   0  0  0  0  0  0  0  0  0  0  0  0
    2.1098    2.9244   -4.2398 C   0  0  0  0  0  0  0  0  0  0  0  0
    3.0543    3.3700   -5.2711 C   0  0  0  0  0  0  0  0  0  0  0  0
    2.7528    4.4603   -6.0859 C   0  0  0  0  0  0  0  0  0  0  0  0
    3.6593    4.9102   -7.0211 C   0  0  0  0  0  0  0  0  0  0  0  0
    4.9008    4.2964   -7.1833 C   0  0  0  0  0  0  0  0  0  0  0  0
    6.0104    5.0044   -8.3604 S   0  0  0  0  0  0  0  0  0  0  0  0
    6.9237    3.5566   -9.0312 C   0  0  0  0  0  0  0  0  0  0  0  0
    7.4615    3.9107  -10.4031 C   0  0  0  0  0  0  0  0  0  0  0  0
    5.1871    3.2072   -6.3660 C   0  0  0  0  0  0  0  0  0  0  0  0
    4.2826    2.7375   -5.4356 C   0  0  0  0  0  0  0  0  0  0  0  0
    6.3806    2.5749   -6.4433 F   0  0  0  0  0  0  0  0  0  0  0  0
    0.7787    2.6553   -4.5210 C   0  0  0  0  0  0  0  0  0  0  0  0
    0.0538    2.6021   -6.1164 S   0  0  0  0  0  0  0  0  0  0  0  0
    3.8272    2.8833   -2.3671 C   0  0  0  0  0  0  0  0  0  0  0  0
    3.9288    2.4780   -1.0690 C   0  0  0  0  0  0  0  0  0  0  0  0
    2.3982    1.9314   -0.4221 S   0  0  0  0  0  0  0  0  0  0  0  0
    5.0923    2.4279   -0.2425 C   0  0  0  0  0  0  0  0  0  0  0  0
    6.3539    2.8574   -0.5295 C   0  0  0  0  0  0  0  0  0  0  0  0
    7.2827    2.6317    0.5202 C   0  0  0  0  0  0  0  0  0  0  0  0
    8.6500    2.9523    0.5623 C   0  0  0  0  0  0  0  0  0  0  0  0
    9.2906    3.6194   -0.5770 C   0  0  0  0  0  0  0  0  0  0  0  0
    8.7252    4.7578   -1.1481 C   0  0  0  0  0  0  0  0  0  0  0  0
    9.2713    5.3372   -2.2756 C   0  0  0  0  0  0  0  0  0  0  0  0
   10.4002    4.7949   -2.8801 C   0  0  0  0  0  0  0  0  0  0  0  0
   11.1485    5.4280   -4.3451 S   0  0  0  0  0  0  0  0  0  0  0  0
    9.7526    6.2195   -5.2228 C   0  0  0  0  0  0  0  0  0  0  0  0
    8.6816    5.2235   -5.6205 C   0  0  0  0  0  0  0  0  0  0  0  0
   10.9879    3.6880   -2.2665 C   0  0  0  0  0  0  0  0  0  0  0  0
   12.1010    3.1529   -2.8034 F   0  0  0  0  0  0  0  0  0  0  0  0
   10.4548    3.1016   -1.1398 C   0  0  0  0  0  0  0  0  0  0  0  0
    9.3393    2.5832    1.7097 C   0  0  0  0  0  0  0  0  0  0  0  0
    8.7327    1.9154    2.8033 C   0  0  0  0  0  0  0  0  0  0  0  0
    7.3747    1.5807    2.7528 C   0  0  0  0  0  0  0  0  0  0  0  0
    6.6715    0.8426    3.8121 C   0  0  0  0  0  0  0  0  0  0  0  0
    6.6055    1.2935    5.1277 C   0  0  0  0  0  0  0  0  0  0  0  0
    5.8313    0.6285    6.0549 C   0  0  0  0  0  0  0  0  0  0  0  0
    5.1063   -0.5150    5.7182 C   0  0  0  0  0  0  0  0  0  0  0  0
    4.1029   -1.2274    6.9865 S   0  0  0  0  0  0  0  0  0  0  0  0
    2.7232   -2.0519    6.1056 C   0  0  0  0  0  0  0  0  0  0  0  0
    1.9572   -1.1231    5.1854 C   0  0  0  0  0  0  0  0  0  0  0  0
    5.2558   -1.0009    4.4234 C   0  0  0  0  0  0  0  0  0  0  0  0
    6.0003   -0.3285    3.4773 C   0  0  0  0  0  0  0  0  0  0  0  0
    4.6728   -2.1592    4.0343 F   0  0  0  0  0  0  0  0  0  0  0  0
    6.6844    1.9591    1.6120 C   0  0  0  0  0  0  0  0  0  0  0  0
    4.9849    1.6948    1.3440 S   0  0  0  0  0  0  0  0  0  0  0  0
    9.6695    1.6491    3.8452 C   0  0  0  0  0  0  0  0  0  0  0  0
   10.9055    2.1102    3.5673 C   0  0  0  0  0  0  0  0  0  0  0  0
   11.0287    2.8859    2.0253 S   0  0  0  0  0  0  0  0  0  0  0  0
    4.2522    1.2649   12.2739 H   0  0  0  0  0  0  0  0  0  0  0  0
    5.4677    3.0517   10.5094 H   0  0  0  0  0  0  0  0  0  0  0  0
    5.4117    3.9697    8.1957 H   0  0  0  0  0  0  0  0  0  0  0  0
    2.0944    1.4912    7.1823 H   0  0  0  0  0  0  0  0  0  0  0  0
    0.8607   -0.2360    8.0262 H   0  0  0  0  0  0  0  0  0  0  0  0
    0.1398   -1.4579   10.7354 H   0  0  0  0  0  0  0  0  0  0  0  0
   -1.5944   -2.6290   11.5890 H   0  0  0  0  0  0  0  0  0  0  0  0
   -3.4730   -4.1299   12.1876 H   0  0  0  0  0  0  0  0  0  0  0  0
   -4.3633   -4.8119    8.0763 H   0  0  0  0  0  0  0  0  0  0  0  0
   -2.0618   -3.2127    5.0687 H   0  0  0  0  0  0  0  0  0  0  0  0
   -4.8009   -3.9936    6.1812 H   0  0  0  0  0  0  0  0  0  0  0  0
   -2.3115   -4.5979    3.3034 H   0  0  0  0  0  0  0  0  0  0  0  0
   -1.7681   -2.9046    1.7237 H   0  0  0  0  0  0  0  0  0  0  0  0
    0.6197   -2.5777    1.5601 H   0  0  0  0  0  0  0  0  0  0  0  0
    2.6796   -2.8573    2.1091 H   0  0  0  0  0  0  0  0  0  0  0  0
    4.2632   -2.9433    1.3358 H   0  0  0  0  0  0  0  0  0  0  0  0
    3.2953   -0.6244    1.1633 H   0  0  0  0  0  0  0  0  0  0  0  0
    1.9372   -1.2676    0.2380 H   0  0  0  0  0  0  0  0  0  0  0  0
    3.5681   -1.3561   -0.4215 H   0  0  0  0  0  0  0  0  0  0  0  0
   -1.4849   -6.3981   -0.7433 H   0  0  0  0  0  0  0  0  0  0  0  0
   -7.1623   -2.4692   -0.6789 H   0  0  0  0  0  0  0  0  0  0  0  0
   -9.4408   -1.5534   -0.5704 H   0  0  0  0  0  0  0  0  0  0  0  0
  -13.0696   -1.5509    2.6644 H   0  0  0  0  0  0  0  0  0  0  0  0
  -12.1583   -3.0035    3.1180 H   0  0  0  0  0  0  0  0  0  0  0  0
  -10.0651   -1.6309    3.2885 H   0  0  0  0  0  0  0  0  0  0  0  0
  -11.3165   -0.9648    4.3417 H   0  0  0  0  0  0  0  0  0  0  0  0
  -10.9621   -0.1945    2.7883 H   0  0  0  0  0  0  0  0  0  0  0  0
   -8.2376   -5.4182    2.2364 H   0  0  0  0  0  0  0  0  0  0  0  0
   -7.0837   -4.5390   -1.9734 H   0  0  0  0  0  0  0  0  0  0  0  0
   -6.6891   -2.6912   -3.6420 H   0  0  0  0  0  0  0  0  0  0  0  0
   -8.0345    0.0165   -6.0485 H   0  0  0  0  0  0  0  0  0  0  0  0
   -9.8120    0.7736   -4.5648 H   0  0  0  0  0  0  0  0  0  0  0  0
  -11.4342    1.4629   -3.3481 H   0  0  0  0  0  0  0  0  0  0  0  0
  -12.1624    1.2864   -1.7452 H   0  0  0  0  0  0  0  0  0  0  0  0
  -12.6947   -0.6919   -3.2076 H   0  0  0  0  0  0  0  0  0  0  0  0
  -11.7843   -1.1510   -1.7664 H   0  0  0  0  0  0  0  0  0  0  0  0
  -10.9691   -1.0501   -3.3316 H   0  0  0  0  0  0  0  0  0  0  0  0
   -5.3696   -0.2966   -2.7173 H   0  0  0  0  0  0  0  0  0  0  0  0
   -1.5697   -4.0575   -6.0424 H   0  0  0  0  0  0  0  0  0  0  0  0
    0.1463   -5.0381   -7.4234 H   0  0  0  0  0  0  0  0  0  0  0  0
    1.2829   -6.2640   -8.7430 H   0  0  0  0  0  0  0  0  0  0  0  0
    2.5064   -6.1570  -10.0156 H   0  0  0  0  0  0  0  0  0  0  0  0
    3.5904   -4.2400   -8.8941 H   0  0  0  0  0  0  0  0  0  0  0  0
    3.5005   -5.6045   -7.7742 H   0  0  0  0  0  0  0  0  0  0  0  0
    2.3753   -4.2514   -7.6163 H   0  0  0  0  0  0  0  0  0  0  0  0
   -2.6643   -1.4243   -9.2425 H   0  0  0  0  0  0  0  0  0  0  0  0
   -1.4081   -0.0763   -7.2150 H   0  0  0  0  0  0  0  0  0  0  0  0
   -2.2825    1.7292   -3.4868 H   0  0  0  0  0  0  0  0  0  0  0  0
   -0.1093    2.7066    0.3756 H   0  0  0  0  0  0  0  0  0  0  0  0
   -1.5128    1.5729    2.0400 H   0  0  0  0  0  0  0  0  0  0  0  0
   -4.8576   -0.2053    0.2606 H   0  0  0  0  0  0  0  0  0  0  0  0
   -4.8137   -1.9439    0.6560 H   0  0  0  0  0  0  0  0  0  0  0  0
   -6.9096   -0.8433    1.5023 H   0  0  0  0  0  0  0  0  0  0  0  0
   -5.9273   -1.4474    2.8439 H   0  0  0  0  0  0  0  0  0  0  0  0
   -5.9281    0.2756    2.4535 H   0  0  0  0  0  0  0  0  0  0  0  0
   -1.2961   -0.1979   -2.5447 H   0  0  0  0  0  0  0  0  0  0  0  0
    1.8065    4.9661   -5.9722 H   0  0  0  0  0  0  0  0  0  0  0  0
    3.4246    5.7585   -7.6449 H   0  0  0  0  0  0  0  0  0  0  0  0
    6.2165    2.7305   -9.0852 H   0  0  0  0  0  0  0  0  0  0  0  0
    7.7307    3.3086   -8.3438 H   0  0  0  0  0  0  0  0  0  0  0  0
    6.6490    4.1699  -11.0782 H   0  0  0  0  0  0  0  0  0  0  0  0
    8.1413    4.7575  -10.3401 H   0  0  0  0  0  0  0  0  0  0  0  0
    8.0011    3.0605  -10.8146 H   0  0  0  0  0  0  0  0  0  0  0  0
    4.5467    1.8715   -4.8484 H   0  0  0  0  0  0  0  0  0  0  0  0
    4.6568    3.2767   -2.9245 H   0  0  0  0  0  0  0  0  0  0  0  0
    6.6200    3.3093   -1.4668 H   0  0  0  0  0  0  0  0  0  0  0  0
    7.8561    5.2067   -0.6908 H   0  0  0  0  0  0  0  0  0  0  0  0
    8.8110    6.2220   -2.6862 H   0  0  0  0  0  0  0  0  0  0  0  0
    9.3589    7.0284   -4.6085 H   0  0  0  0  0  0  0  0  0  0  0  0
   10.2260    6.6532   -6.1034 H   0  0  0  0  0  0  0  0  0  0  0  0
    8.2111    4.7826   -4.7437 H   0  0  0  0  0  0  0  0  0  0  0  0
    7.9160    5.7206   -6.2134 H   0  0  0  0  0  0  0  0  0  0  0  0
    9.1161    4.4214   -6.2126 H   0  0  0  0  0  0  0  0  0  0  0  0
   10.9315    2.2249   -0.7311 H   0  0  0  0  0  0  0  0  0  0  0  0
    7.1291    2.1934    5.4118 H   0  0  0  0  0  0  0  0  0  0  0  0
    5.7605    0.9928    7.0681 H   0  0  0  0  0  0  0  0  0  0  0  0
    3.1151   -2.9161    5.5736 H   0  0  0  0  0  0  0  0  0  0  0  0
    2.0895   -2.3975    6.9232 H   0  0  0  0  0  0  0  0  0  0  0  0
    1.5753   -0.2640    5.7309 H   0  0  0  0  0  0  0  0  0  0  0  0
    2.5836   -0.7589    4.3743 H   0  0  0  0  0  0  0  0  0  0  0  0
    1.1116   -1.6572    4.7566 H   0  0  0  0  0  0  0  0  0  0  0  0
    6.0666   -0.7416    2.4826 H   0  0  0  0  0  0  0  0  0  0  0  0
    9.4097    1.1303    4.7502 H   0  0  0  0  0  0  0  0  0  0  0  0
   11.7864    2.0436    4.1756 H   0  0  0  0  0  0  0  0  0  0  0  0
  1  2  1  0  0  0  0
  2  3  1  0  0  0  0
  3  4  2  0  0  0  0
  4  5  1  0  0  0  0
  5  6  1  0  0  0  0
  6  7  2  0  0  0  0
  7  8  1  0  0  0  0
  8  9  1  0  0  0  0
  8 10  2  0  0  0  0
  3 11  1  0  0  0  0
 11 12  2  0  0  0  0
 12 13  1  0  0  0  0
 13 14  1  0  0  0  0
 14 15  1  0  0  0  0
 15 16  2  0  0  0  0
 16 17  1  0  0  0  0
 17 18  1  0  0  0  0
 18 19  2  0  0  0  0
 19 20  1  0  0  0  0
 20 21  1  0  0  0  0
 20 22  2  0  0  0  0
 15 23  1  0  0  0  0
 23 24  2  0  0  0  0
 24 25  1  0  0  0  0
 25 26  2  0  0  0  0
 26 27  1  0  0  0  0
 27 28  2  0  0  0  0
 28 29  1  0  0  0  0
 29 30  2  0  0  0  0
 30 31  1  0  0  0  0
 31 32  2  0  0  0  0
 32 33  1  0  0  0  0
 33 34  1  0  0  0  0
 34 35  1  0  0  0  0
 32 36  1  0  0  0  0
 36 37  1  0  0  0  0
 36 38  2  0  0  0  0
 28 39  1  0  0  0  0
 39 40  2  0  0  0  0
 40 41  1  0  0  0  0
 41 42  1  0  0  0  0
 42 43  2  0  0  0  0
 43 44  1  0  0  0  0
 44 45  2  0  0  0  0
 45 46  1  0  0  0  0
 46 47  1  0  0  0  0
 47 48  1  0  0  0  0
 45 49  1  0  0  0  0
 49 50  2  0  0  0  0
 49 51  1  0  0  0  0
 41 52  2  0  0  0  0
 52 53  1  0  0  0  0
 40 54  1  0  0  0  0
 54 55  2  0  0  0  0
 55 56  1  0  0  0  0
 55 57  1  0  0  0  0
 57 58  2  0  0  0  0
 58 59  1  0  0  0  0
 59 60  2  0  0  0  0
 60 61  1  0  0  0  0
 61 62  2  0  0  0  0
 62 63  1  0  0  0  0
 63 64  2  0  0  0  0
 64 65  1  0  0  0  0
 65 66  1  0  0  0  0
 66 67  1  0  0  0  0
 64 68  1  0  0  0  0
 68 69  1  0  0  0  0
 68 70  2  0  0  0  0
 60 71  1  0  0  0  0
 71 72  2  0  0  0  0
 72 73  1  0  0  0  0
 73 74  1  0  0  0  0
 74 75  2  0  0  0  0
 75 76  1  0  0  0  0
 76 77  2  0  0  0  0
 77 78  1  0  0  0  0
 78 79  1  0  0  0  0
 79 80  1  0  0  0  0
 77 81  1  0  0  0  0
 81 82  2  0  0  0  0
 81 83  1  0  0  0  0
 73 84  2  0  0  0  0
 84 85  1  0  0  0  0
 72 86  1  0  0  0  0
 86 87  2  0  0  0  0
 87 88  1  0  0  0  0
 87 89  1  0  0  0  0
 89 90  2  0  0  0  0
 90 91  1  0  0  0  0
 91 92  2  0  0  0  0
 92 93  1  0  0  0  0
 93 94  2  0  0  0  0
 94 95  1  0  0  0  0
 95 96  2  0  0  0  0
 96 97  1  0  0  0  0
 97 98  1  0  0  0  0
 98 99  1  0  0  0  0
 96100  1  0  0  0  0
100101  1  0  0  0  0
100102  2  0  0  0  0
 92103  1  0  0  0  0
103104  2  0  0  0  0
104105  1  0  0  0  0
105106  1  0  0  0  0
106107  2  0  0  0  0
107108  1  0  0  0  0
108109  2  0  0  0  0
109110  1  0  0  0  0
110111  1  0  0  0  0
111112  1  0  0  0  0
109113  1  0  0  0  0
113114  2  0  0  0  0
113115  1  0  0  0  0
105116  2  0  0  0  0
116117  1  0  0  0  0
104118  1  0  0  0  0
118119  2  0  0  0  0
119120  1  0  0  0  0
119121  1  0  0  0  0
121122  2  0  0  0  0
122123  1  0  0  0  0
123124  2  0  0  0  0
124125  1  0  0  0  0
125126  2  0  0  0  0
126127  1  0  0  0  0
127128  2  0  0  0  0
128129  1  0  0  0  0
129130  1  0  0  0  0
130131  1  0  0  0  0
128132  1  0  0  0  0
132133  1  0  0  0  0
132134  2  0  0  0  0
124135  1  0  0  0  0
135136  2  0  0  0  0
136137  1  0  0  0  0
137138  1  0  0  0  0
138139  2  0  0  0  0
139140  1  0  0  0  0
140141  2  0  0  0  0
141142  1  0  0  0  0
142143  1  0  0  0  0
143144  1  0  0  0  0
141145  1  0  0  0  0
145146  2  0  0  0  0
145147  1  0  0  0  0
137148  2  0  0  0  0
148149  1  0  0  0  0
136150  1  0  0  0  0
150151  2  0  0  0  0
151152  1  0  0  0  0
  5  1  2  0  0  0  0
 17 13  2  0  0  0  0
 53 25  1  0  0  0  0
 85 57  1  0  0  0  0
117 89  1  0  0  0  0
149121  1  0  0  0  0
 10  4  1  0  0  0  0
 22 16  1  0  0  0  0
 52 27  1  0  0  0  0
 84 59  1  0  0  0  0
116 91  1  0  0  0  0
148123  1  0  0  0  0
 38 29  1  0  0  0  0
 56 39  1  0  0  0  0
 70 61  1  0  0  0  0
 88 71  1  0  0  0  0
102 93  1  0  0  0  0
120103  1  0  0  0  0
134125  1  0  0  0  0
152135  1  0  0  0  0
 50 42  1  0  0  0  0
 82 74  1  0  0  0  0
114106  1  0  0  0  0
146138  1  0  0  0  0
  1153  1  0  0  0  0
  6154  1  0  0  0  0
  7155  1  0  0  0  0
 10156  1  0  0  0  0
 11157  1  0  0  0  0
 12158  1  0  0  0  0
 18159  1  0  0  0  0
 19160  1  0  0  0  0
 22161  1  0  0  0  0
 23162  1  0  0  0  0
 24163  1  0  0  0  0
 26164  1  0  0  0  0
 30165  1  0  0  0  0
 31166  1  0  0  0  0
 34167  1  0  0  0  0
 34168  1  0  0  0  0
 35169  1  0  0  0  0
 35170  1  0  0  0  0
 35171  1  0  0  0  0
 38172  1  0  0  0  0
 43173  1  0  0  0  0
 44174  1  0  0  0  0
 47175  1  0  0  0  0
 47176  1  0  0  0  0
 48177  1  0  0  0  0
 48178  1  0  0  0  0
 48179  1  0  0  0  0
 50180  1  0  0  0  0
 54181  1  0  0  0  0
 58182  1  0  0  0  0
 62183  1  0  0  0  0
 63184  1  0  0  0  0
 66185  1  0  0  0  0
 66186  1  0  0  0  0
 67187  1  0  0  0  0
 67188  1  0  0  0  0
 67189  1  0  0  0  0
 70190  1  0  0  0  0
 75191  1  0  0  0  0
 76192  1  0  0  0  0
 79193  1  0  0  0  0
 79194  1  0  0  0  0
 80195  1  0  0  0  0
 80196  1  0  0  0  0
 80197  1  0  0  0  0
 82198  1  0  0  0  0
 86199  1  0  0  0  0
 90200  1  0  0  0  0
 94201  1  0  0  0  0
 95202  1  0  0  0  0
 98203  1  0  0  0  0
 98204  1  0  0  0  0
 99205  1  0  0  0  0
 99206  1  0  0  0  0
 99207  1  0  0  0  0
102208  1  0  0  0  0
107209  1  0  0  0  0
108210  1  0  0  0  0
111211  1  0  0  0  0
111212  1  0  0  0  0
112213  1  0  0  0  0
112214  1  0  0  0  0
112215  1  0  0  0  0
114216  1  0  0  0  0
118217  1  0  0  0  0
122218  1  0  0  0  0
126219  1  0  0  0  0
127220  1  0  0  0  0
130221  1  0  0  0  0
130222  1  0  0  0  0
131223  1  0  0  0  0
131224  1  0  0  0  0
131225  1  0  0  0  0
134226  1  0  0  0  0
139227  1  0  0  0  0
140228  1  0  0  0  0
143229  1  0  0  0  0
143230  1  0  0  0  0
144231  1  0  0  0  0
144232  1  0  0  0  0
144233  1  0  0  0  0
146234  1  0  0  0  0
150235  1  0  0  0  0
151236  1  0  0  0  0
M  END
