82

C         10.98890       -1.14350        0.23990
S          9.64760       -0.61230        1.15960
C          8.53940       -1.46670        0.15370
C          9.20530       -2.14000       -0.84690
C         10.62060       -1.95350       -0.79540
O         11.53070       -2.47530       -1.64320
C          8.56660       -3.03910       -1.84940
F          9.30380       -4.16580       -2.03460
F          8.47280       -2.49650       -3.08040
F          7.34470       -3.46330       -1.52000
C          7.10550       -1.33670        0.34680
C          6.28750       -0.96690       -0.73830
N          6.59270       -0.70930       -2.01760
N          5.44590       -0.43830       -2.57030
C          5.35310       -0.07510       -3.95470
C          5.23010        1.43910       -4.09300
N          4.39580       -0.47310       -1.80360
C          4.87930       -0.80080       -0.59660
C          4.24390       -0.98030        0.64420
C          5.06110       -1.33950        1.69790
C          6.45830       -1.50960        1.55690
Cl         7.36070       -1.97280        2.94560
Cl         4.37480       -1.53740        3.26080
C          2.79860       -0.79200        0.79280
C          1.97400       -1.83030        1.25970
N          2.25850       -3.10240        1.57120
N          1.10500       -3.61690        1.88780
C          0.97730       -5.00020        2.24670
C          0.89670       -5.86710        0.99380
N          0.06790       -2.83370        1.81980
C          0.56860       -1.65400        1.42720
C         -0.06330       -0.42050        1.15260
C          0.76510        0.56710        0.64070
C          2.15640        0.38700        0.47250
Cl         3.08460        1.72080       -0.08640
Cl         0.10670        2.10110        0.22370
C         -1.47460       -0.24940        1.40960
S         -2.51410        0.66220        0.37640
C         -3.90660        0.29400        1.32960
C         -3.55870       -0.49710        2.42270
C         -2.17250       -0.79840        2.47300
O         -1.52010       -1.45340        3.44650
C         -4.56050       -0.97690        3.41610
F         -5.13900        0.01960        4.11490
F         -4.04110       -1.80240        4.34780
F         -5.56430       -1.67700        2.85340
C         -5.15850        0.85270        0.93940
S         -6.65580        0.69780        1.80270
C         -7.50480        1.68320        0.67070
C         -6.66110        2.12670       -0.33210
C         -5.33600        1.64790       -0.18780
O         -4.29990        1.88650       -1.00890
C         -7.04690        3.08070       -1.41400
F         -8.07890        3.86680       -1.09950
F         -7.33810        2.48820       -2.58400
F         -6.02420        3.92620       -1.70290
C         -8.90760        1.91360        0.85960
S         -9.56250        2.14100        2.45320
C        -11.14040        2.29680        1.84110
C        -11.18300        2.16770        0.47960
C         -9.90400        1.93440       -0.09770
O         -9.64070        1.69830       -1.39190
C        -12.45300        2.21680       -0.30080
F        -13.42700        2.86880        0.33840
F        -12.93370        0.98850       -0.58120
F        -12.29650        2.81970       -1.49780
H         11.98370       -0.84480        0.49610
H         11.12720       -3.09680       -2.26060
H          4.47100       -0.56560       -4.37130
H          6.25780       -0.44220       -4.44180
H          5.13570        1.70710       -5.14120
H          6.11050        1.92860       -3.68400
H          4.35120        1.79040       -3.55810
H          0.06950       -5.09670        2.84410
H          1.85250       -5.27180        2.83980
H          1.79270       -5.73610        0.39240
H          0.81120       -6.91290        1.27390
H          0.02920       -5.59070        0.39970
H         -2.12050       -1.84550        4.09080
H         -4.50440        2.54550       -1.68490
H        -11.96940        2.47930        2.49580
H        -10.40540        1.86670       -1.95680
