
  xtb     02282216043D
 energy: -207.147195428983 gnorm: 0.000218464677 xtb: 6.4.1 (unknown)
 82 89  0     0  0            999 V2000
   10.9889   -1.1435    0.2399 C   0  0  0  0  0  0  0  0  0  0  0  0
    9.6476   -0.6123    1.1596 S   0  0  0  0  0  0  0  0  0  0  0  0
    8.5394   -1.4667    0.1537 C   0  0  0  0  0  0  0  0  0  0  0  0
    9.2053   -2.1400   -0.8469 C   0  0  0  0  0  0  0  0  0  0  0  0
   10.6206   -1.9535   -0.7954 C   0  0  0  0  0  0  0  0  0  0  0  0
   11.5307   -2.4753   -1.6432 O   0  0  0  0  0  0  0  0  0  0  0  0
    8.5666   -3.0391   -1.8494 C   0  0  0  0  0  0  0  0  0  0  0  0
    9.3038   -4.1658   -2.0346 F   0  0  0  0  0  0  0  0  0  0  0  0
    8.4728   -2.4965   -3.0804 F   0  0  0  0  0  0  0  0  0  0  0  0
    7.3447   -3.4633   -1.5200 F   0  0  0  0  0  0  0  0  0  0  0  0
    7.1055   -1.3367    0.3468 C   0  0  0  0  0  0  0  0  0  0  0  0
    6.2875   -0.9669   -0.7383 C   0  0  0  0  0  0  0  0  0  0  0  0
    6.5927   -0.7093   -2.0176 N   0  0  0  0  0  0  0  0  0  0  0  0
    5.4459   -0.4383   -2.5703 N   0  0  0  0  0  0  0  0  0  0  0  0
    5.3531   -0.0751   -3.9547 C   0  0  0  0  0  0  0  0  0  0  0  0
    5.2301    1.4391   -4.0930 C   0  0  0  0  0  0  0  0  0  0  0  0
    4.3958   -0.4731   -1.8036 N   0  0  0  0  0  0  0  0  0  0  0  0
    4.8793   -0.8008   -0.5966 C   0  0  0  0  0  0  0  0  0  0  0  0
    4.2439   -0.9803    0.6442 C   0  0  0  0  0  0  0  0  0  0  0  0
    5.0611   -1.3395    1.6979 C   0  0  0  0  0  0  0  0  0  0  0  0
    6.4583   -1.5096    1.5569 C   0  0  0  0  0  0  0  0  0  0  0  0
    7.3607   -1.9728    2.9456 Cl  0  0  0  0  0  0  0  0  0  0  0  0
    4.3748   -1.5374    3.2608 Cl  0  0  0  0  0  0  0  0  0  0  0  0
    2.7986   -0.7920    0.7928 C   0  0  0  0  0  0  0  0  0  0  0  0
    1.9740   -1.8303    1.2597 C   0  0  0  0  0  0  0  0  0  0  0  0
    2.2585   -3.1024    1.5712 N   0  0  0  0  0  0  0  0  0  0  0  0
    1.1050   -3.6169    1.8878 N   0  0  0  0  0  0  0  0  0  0  0  0
    0.9773   -5.0002    2.2467 C   0  0  0  0  0  0  0  0  0  0  0  0
    0.8967   -5.8671    0.9938 C   0  0  0  0  0  0  0  0  0  0  0  0
    0.0679   -2.8337    1.8198 N   0  0  0  0  0  0  0  0  0  0  0  0
    0.5686   -1.6540    1.4272 C   0  0  0  0  0  0  0  0  0  0  0  0
   -0.0633   -0.4205    1.1526 C   0  0  0  0  0  0  0  0  0  0  0  0
    0.7651    0.5671    0.6407 C   0  0  0  0  0  0  0  0  0  0  0  0
    2.1564    0.3870    0.4725 C   0  0  0  0  0  0  0  0  0  0  0  0
    3.0846    1.7208   -0.0864 Cl  0  0  0  0  0  0  0  0  0  0  0  0
    0.1067    2.1011    0.2237 Cl  0  0  0  0  0  0  0  0  0  0  0  0
   -1.4746   -0.2494    1.4096 C   0  0  0  0  0  0  0  0  0  0  0  0
   -2.5141    0.6622    0.3764 S   0  0  0  0  0  0  0  0  0  0  0  0
   -3.9066    0.2940    1.3296 C   0  0  0  0  0  0  0  0  0  0  0  0
   -3.5587   -0.4971    2.4227 C   0  0  0  0  0  0  0  0  0  0  0  0
   -2.1725   -0.7984    2.4730 C   0  0  0  0  0  0  0  0  0  0  0  0
   -1.5201   -1.4534    3.4465 O   0  0  0  0  0  0  0  0  0  0  0  0
   -4.5605   -0.9769    3.4161 C   0  0  0  0  0  0  0  0  0  0  0  0
   -5.1390    0.0196    4.1149 F   0  0  0  0  0  0  0  0  0  0  0  0
   -4.0411   -1.8024    4.3478 F   0  0  0  0  0  0  0  0  0  0  0  0
   -5.5643   -1.6770    2.8534 F   0  0  0  0  0  0  0  0  0  0  0  0
   -5.1585    0.8527    0.9394 C   0  0  0  0  0  0  0  0  0  0  0  0
   -6.6558    0.6978    1.8027 S   0  0  0  0  0  0  0  0  0  0  0  0
   -7.5048    1.6832    0.6707 C   0  0  0  0  0  0  0  0  0  0  0  0
   -6.6611    2.1267   -0.3321 C   0  0  0  0  0  0  0  0  0  0  0  0
   -5.3360    1.6479   -0.1878 C   0  0  0  0  0  0  0  0  0  0  0  0
   -4.2999    1.8865   -1.0089 O   0  0  0  0  0  0  0  0  0  0  0  0
   -7.0469    3.0807   -1.4140 C   0  0  0  0  0  0  0  0  0  0  0  0
   -8.0789    3.8668   -1.0995 F   0  0  0  0  0  0  0  0  0  0  0  0
   -7.3381    2.4882   -2.5840 F   0  0  0  0  0  0  0  0  0  0  0  0
   -6.0242    3.9262   -1.7029 F   0  0  0  0  0  0  0  0  0  0  0  0
   -8.9076    1.9136    0.8596 C   0  0  0  0  0  0  0  0  0  0  0  0
   -9.5625    2.1410    2.4532 S   0  0  0  0  0  0  0  0  0  0  0  0
  -11.1404    2.2968    1.8411 C   0  0  0  0  0  0  0  0  0  0  0  0
  -11.1830    2.1677    0.4796 C   0  0  0  0  0  0  0  0  0  0  0  0
   -9.9040    1.9344   -0.0977 C   0  0  0  0  0  0  0  0  0  0  0  0
   -9.6407    1.6983   -1.3919 O   0  0  0  0  0  0  0  0  0  0  0  0
  -12.4530    2.2168   -0.3008 C   0  0  0  0  0  0  0  0  0  0  0  0
  -13.4270    2.8688    0.3384 F   0  0  0  0  0  0  0  0  0  0  0  0
  -12.9337    0.9885   -0.5812 F   0  0  0  0  0  0  0  0  0  0  0  0
  -12.2965    2.8197   -1.4978 F   0  0  0  0  0  0  0  0  0  0  0  0
   11.9837   -0.8448    0.4961 H   0  0  0  0  0  0  0  0  0  0  0  0
   11.1272   -3.0968   -2.2606 H   0  0  0  0  0  0  0  0  0  0  0  0
    4.4710   -0.5656   -4.3713 H   0  0  0  0  0  0  0  0  0  0  0  0
    6.2578   -0.4422   -4.4418 H   0  0  0  0  0  0  0  0  0  0  0  0
    5.1357    1.7071   -5.1412 H   0  0  0  0  0  0  0  0  0  0  0  0
    6.1105    1.9286   -3.6840 H   0  0  0  0  0  0  0  0  0  0  0  0
    4.3512    1.7904   -3.5581 H   0  0  0  0  0  0  0  0  0  0  0  0
    0.0695   -5.0967    2.8441 H   0  0  0  0  0  0  0  0  0  0  0  0
    1.8525   -5.2718    2.8398 H   0  0  0  0  0  0  0  0  0  0  0  0
    1.7927   -5.7361    0.3924 H   0  0  0  0  0  0  0  0  0  0  0  0
    0.8112   -6.9129    1.2739 H   0  0  0  0  0  0  0  0  0  0  0  0
    0.0292   -5.5907    0.3997 H   0  0  0  0  0  0  0  0  0  0  0  0
   -2.1205   -1.8455    4.0908 H   0  0  0  0  0  0  0  0  0  0  0  0
   -4.5044    2.5455   -1.6849 H   0  0  0  0  0  0  0  0  0  0  0  0
  -11.9694    2.4793    2.4958 H   0  0  0  0  0  0  0  0  0  0  0  0
  -10.4054    1.8667   -1.9568 H   0  0  0  0  0  0  0  0  0  0  0  0
  1  2  1  0  0  0  0
  2  3  1  0  0  0  0
  3  4  2  0  0  0  0
  4  5  1  0  0  0  0
  5  6  1  0  0  0  0
  4  7  1  0  0  0  0
  7  8  1  0  0  0  0
  7  9  1  0  0  0  0
  7 10  1  0  0  0  0
  3 11  1  0  0  0  0
 11 12  1  0  0  0  0
 12 13  2  0  0  0  0
 13 14  1  0  0  0  0
 14 15  1  0  0  0  0
 15 16  1  0  0  0  0
 14 17  1  0  0  0  0
 17 18  2  0  0  0  0
 18 19  1  0  0  0  0
 19 20  2  0  0  0  0
 20 21  1  0  0  0  0
 21 22  1  0  0  0  0
 20 23  1  0  0  0  0
 19 24  1  0  0  0  0
 24 25  1  0  0  0  0
 25 26  2  0  0  0  0
 26 27  1  0  0  0  0
 27 28  1  0  0  0  0
 28 29  1  0  0  0  0
 27 30  1  0  0  0  0
 30 31  2  0  0  0  0
 31 32  1  0  0  0  0
 32 33  2  0  0  0  0
 33 34  1  0  0  0  0
 34 35  1  0  0  0  0
 33 36  1  0  0  0  0
 32 37  1  0  0  0  0
 37 38  1  0  0  0  0
 38 39  1  0  0  0  0
 39 40  2  0  0  0  0
 40 41  1  0  0  0  0
 41 42  1  0  0  0  0
 40 43  1  0  0  0  0
 43 44  1  0  0  0  0
 43 45  1  0  0  0  0
 43 46  1  0  0  0  0
 39 47  1  0  0  0  0
 47 48  1  0  0  0  0
 48 49  1  0  0  0  0
 49 50  2  0  0  0  0
 50 51  1  0  0  0  0
 51 52  1  0  0  0  0
 50 53  1  0  0  0  0
 53 54  1  0  0  0  0
 53 55  1  0  0  0  0
 53 56  1  0  0  0  0
 49 57  1  0  0  0  0
 57 58  1  0  0  0  0
 58 59  1  0  0  0  0
 59 60  2  0  0  0  0
 60 61  1  0  0  0  0
 61 62  1  0  0  0  0
 60 63  1  0  0  0  0
 63 64  1  0  0  0  0
 63 65  1  0  0  0  0
 63 66  1  0  0  0  0
  5  1  2  0  0  0  0
 21 11  2  0  0  0  0
 34 24  2  0  0  0  0
 41 37  2  0  0  0  0
 51 47  2  0  0  0  0
 61 57  2  0  0  0  0
 18 12  1  0  0  0  0
 31 25  1  0  0  0  0
  1 67  1  0  0  0  0
  6 68  1  0  0  0  0
 15 69  1  0  0  0  0
 15 70  1  0  0  0  0
 16 71  1  0  0  0  0
 16 72  1  0  0  0  0
 16 73  1  0  0  0  0
 28 74  1  0  0  0  0
 28 75  1  0  0  0  0
 29 76  1  0  0  0  0
 29 77  1  0  0  0  0
 29 78  1  0  0  0  0
 42 79  1  0  0  0  0
 52 80  1  0  0  0  0
 59 81  1  0  0  0  0
 62 82  1  0  0  0  0
M  END
