270

C        -15.58390       -9.67700       11.42380
C        -14.60810      -10.24280       10.68560
C        -14.00290       -9.33080        9.76960
C        -12.94360       -9.57030        8.88050
C        -12.35340      -10.90620        8.73040
C        -10.97500      -11.09900        8.80970
C        -10.43440      -12.35930        8.68230
C        -11.23690      -13.47810        8.45420
S        -10.41010      -15.02560        8.27850
C        -11.63950      -16.27180        8.83840
C        -10.90150      -17.53030        9.25070
C        -12.60760      -13.26440        8.34110
F        -13.45420      -14.28490        8.06950
C        -13.16440      -12.01030        8.49070
C        -12.48870       -8.48320        8.14860
C        -13.05460       -7.18930        8.25860
C        -14.12120       -6.95070        9.13940
C        -14.71800       -5.61490        9.25560
C        -16.09590       -5.43180        9.14950
C        -16.64220       -4.16760        9.19290
C        -15.84380       -3.03640        9.35820
S        -16.64860       -1.46640        9.39410
C        -15.42960       -0.33970        8.60110
C        -16.17250        0.81880        7.96610
C        -14.47640       -3.23900        9.52000
C        -13.91340       -4.49690        9.45630
F        -13.64440       -2.19640        9.75260
C        -14.57370       -8.03890        9.87170
S        -15.84320       -8.00360       11.06800
C        -12.44190       -6.27080        7.37050
C        -11.44690       -6.81520        6.61660
S        -11.21410       -8.51950        6.95360
C        -10.62510       -6.12000        5.68040
C         -9.71930       -6.61100        4.79000
C         -9.05550       -5.60110        4.04520
C         -8.05770       -5.74800        3.07120
C         -7.50250       -7.04570        2.66590
C         -6.97480       -7.93790        3.59680
C         -6.32870       -9.08220        3.17900
C         -6.20090       -9.39290        1.82610
S         -5.31740      -10.86350        1.40190
C         -4.36990      -10.39410       -0.09560
C         -3.48610       -9.18510        0.13440
C         -6.80120       -8.53070        0.91310
F         -6.79060       -8.80270       -0.40940
C         -7.42230       -7.36650        1.31460
C         -7.55100       -4.58140        2.51870
C         -7.96390       -3.28020        2.89780
C         -8.97680       -3.13370        3.85840
C         -9.42860       -1.82760        4.35390
C         -8.52140       -0.87790        4.82020
C         -8.96710        0.28960        5.40460
C        -10.32630        0.55520        5.53900
S        -10.82830        2.04280        6.36080
C        -12.03530        1.39200        7.57770
C        -11.41530        0.34690        8.48280
C        -11.21980       -0.37140        5.01120
C        -10.78980       -1.55010        4.43920
F        -12.55030       -0.14540        5.05690
C         -9.50340       -4.30180        4.39190
S        -10.72210       -4.36880        5.63530
C         -7.22680       -2.27300        2.22060
C         -6.26980       -2.77010        1.38760
S         -6.25500       -4.52420        1.35750
C         -5.27030       -2.08600        0.63620
C         -4.32300       -2.67550       -0.14610
C         -3.36300       -1.77340       -0.66200
C         -2.25100       -2.07990       -1.46390
C         -1.93660       -3.46820       -1.82070
C         -1.88560       -4.45990       -0.84050
C         -1.59800       -5.76430       -1.17440
C         -1.35860       -6.13950       -2.49660
S         -1.06420       -7.85240       -2.80110
C          0.06290       -7.86840       -4.25130
C          0.83310       -9.17390       -4.25640
C         -1.41720       -5.14090       -3.46440
F         -1.23280       -5.42960       -4.77180
C         -1.68310       -3.82550       -3.13980
C         -1.45400       -1.01410       -1.84860
C         -1.71630        0.32090       -1.45160
C         -2.84060        0.63080       -0.66360
C         -3.10120        2.02050       -0.26820
C         -3.33750        2.36770        1.06030
C         -3.51570        3.68720        1.42160
C         -3.45540        4.71050        0.47970
S         -3.60030        6.38310        1.04790
C         -4.79650        7.11570       -0.13090
C         -6.12890        6.39470       -0.09980
C         -3.21700        4.35050       -0.84230
C         -3.06250        3.03410       -1.22320
F         -3.10530        5.29710       -1.80440
C         -3.63150       -0.43700       -0.27070
S         -5.05710       -0.34860        0.73680
C         -0.68690        1.19900       -1.86340
C          0.31620        0.58740       -2.55910
S          0.02870       -1.12600       -2.76180
C          1.49750        1.22400       -3.04510
C          1.84820        2.52250       -2.81480
C          3.09590        2.88650       -3.37180
C          3.72860        4.13990       -3.28890
C          3.02660        5.26610       -2.66440
C          1.70710        5.54670       -3.01510
C          0.98350        6.53050       -2.37140
C          1.55570        7.27680       -1.34680
S          0.72820        8.49640       -0.38600
C         -1.03570        8.28670       -0.81440
C         -1.44540        9.10710       -2.02340
C          2.89740        7.02660       -1.04720
F          3.49440        7.75040       -0.07940
C          3.62890        6.04680       -1.68000
C          5.01350        4.21390       -3.80350
C          5.63950        3.12080       -4.45220
C          4.97530        1.88870       -4.60230
C          5.60410        0.78510       -5.33550
C          6.16150        1.00360       -6.59330
C          6.77350       -0.01750       -7.29260
C          6.84610       -1.30010       -6.76100
S          7.63590       -2.67650       -7.53060
C          7.72590       -2.20480       -9.29340
C          6.35690       -2.13970       -9.94260
C          6.28150       -1.50570       -5.50130
C          5.66750       -0.49660       -4.79360
F          6.34470       -2.73370       -4.94960
C          3.72190        1.79250       -4.02100
S          2.70530        0.37180       -3.98290
C          6.96120        3.43080       -4.84070
C          7.35500        4.70510       -4.53700
S          6.06390        5.60130       -3.75450
C          8.67370        5.22520       -4.77800
C          9.65130        4.40520       -5.40000
N          9.58350        3.16160       -5.90310
N         10.78530        2.91640       -6.34440
C         11.12560        1.67060       -6.97380
C         12.40550        1.10520       -6.37330
N         11.65930        3.86690       -6.19210
C         10.98770        4.85170       -5.58620
C         11.45970        6.12140       -5.17450
C         10.47270        6.92310       -4.61100
C          9.13860        6.48910       -4.42620
Cl         8.05340        7.61600       -3.70170
Cl        10.82540        8.51900       -4.06860
C         12.85830        6.42020       -5.34800
C         13.56770        7.56490       -5.12080
C         14.95500        7.45010       -5.38920
C         15.94930        8.42800       -5.21530
C         15.61330        9.78930       -4.78370
C         16.27820       10.39410       -3.71820
C         15.93170       11.66100       -3.30260
C         14.92400       12.38530       -3.93910
S         14.58710       14.00700       -3.33180
C         12.78780       14.22810       -3.63850
C         12.25040       15.26240       -2.66920
C         14.29820       11.78580       -5.02850
F         13.35350       12.44540       -5.73740
C         14.61750       10.50780       -5.43860
C         17.25410        8.03590       -5.47680
C         17.60290        6.73160       -5.90660
C         16.60950        5.75660       -6.07470
C         16.91910        4.37440       -6.45930
C         16.21360        3.73500       -7.47810
C         16.48360        2.42470       -7.80440
C         17.45520        1.68850       -7.12540
S         17.65080        0.00230       -7.60830
C         19.39940       -0.39790       -7.21180
C         19.82030       -1.60070       -8.03330
C         18.13860        2.33360       -6.09930
C         17.89200        3.65280       -5.77580
F         19.06900        1.68200       -5.36240
C         15.30150        6.14890       -5.82240
S         13.89910        5.12500       -5.92500
C         19.00240        6.62160       -6.16250
C         19.67130        7.76900       -5.93100
S         18.66230        9.06470       -5.38620
H        -16.19100      -10.13820       12.17820
H        -14.30150      -11.26760       10.78840
H        -10.32690      -10.25820        9.00190
H         -9.36850      -12.50620        8.76050
H        -12.32820      -16.47010        8.01860
H        -12.17940      -15.83940        9.67940
H        -11.61520      -18.28130        9.58260
H        -10.33620      -17.93260        8.41320
H        -10.21020      -17.31970       10.06360
H        -14.23260      -11.90240        8.38110
H        -16.73840       -6.28470        8.99620
H        -17.70680       -4.02920        9.08760
H        -14.89310       -0.92030        7.85230
H        -14.73800        0.00930        9.36670
H        -16.87010        0.45810        7.21380
H        -15.46430        1.49390        7.49040
H        -16.73080        1.37230        8.71760
H        -12.84800       -4.59510        9.59740
H        -12.74050       -5.24230        7.27530
H         -9.53560       -7.66310        4.66390
H         -7.02930       -7.70690        4.64980
H         -5.89070       -9.75530        3.89950
H         -5.06250      -10.24100       -0.92000
H         -3.77230      -11.28350       -0.29500
H         -2.82190       -9.35340        0.97980
H         -2.88450       -9.00100       -0.75410
H         -4.08330       -8.29690        0.33400
H         -7.85960       -6.72800        0.56280
H         -7.46250       -1.07990        4.76920
H         -8.26390        1.01050        5.79160
H        -12.33440        2.27640        8.13980
H        -12.89770        1.00400        7.03990
H        -11.09690       -0.52290        7.91030
H        -10.54980        0.75530        9.00010
H        -12.14190        0.01750        9.22190
H        -11.52490       -2.23600        4.04820
H         -7.39530       -1.21860        2.34840
H         -4.31570       -3.73180       -0.34640
H         -2.04260       -4.19710        0.19440
H         -1.55280       -6.52560       -0.41120
H          0.73250       -7.01610       -4.14680
H         -0.53670       -7.76050       -5.15380
H          1.50710       -9.19680       -5.10990
H          0.15220      -10.01930       -4.32660
H          1.41830       -9.27670       -3.34530
H         -1.72450       -3.09640       -3.93390
H         -3.36170        1.60010        1.81770
H         -3.69160        3.95150        2.45250
H         -4.89560        8.14430        0.21530
H         -4.35750        7.11690       -1.12610
H         -6.53570        6.38800        0.90900
H         -6.83410        6.89870       -0.75770
H         -6.02030        5.36440       -0.43500
H         -2.90770        2.80880       -2.26720
H         -0.67410        2.24390       -1.61760
H          1.25390        3.19610       -2.22690
H          1.24190        4.99250       -3.81680
H         -0.03710        6.70280       -2.67120
H         -1.56430        8.62380        0.07740
H         -1.22680        7.22370       -0.94620
H         -1.28390       10.16520       -1.83140
H         -0.86910        8.83020       -2.90340
H         -2.50110        8.94910       -2.23660
H          4.64920        5.87660       -1.37540
H          6.10230        1.98500       -7.03820
H          7.20100        0.19740       -8.25880
H          8.27340       -1.26700       -9.38070
H          8.32810       -2.99860       -9.73550
H          6.45900       -1.89630      -10.99850
H          5.85410       -3.09970       -9.85370
H          5.73550       -1.38240       -9.46920
H          5.26310       -0.71400       -3.81790
H          7.62240        2.72360       -5.30250
H         10.27550        1.00140       -6.82750
H         11.26480        1.85070       -8.04480
H         12.26340        0.87720       -5.32010
H         13.20900        1.83130       -6.46780
H         12.68680        0.19400       -6.89260
H         13.13870        8.47590       -4.75430
H         17.05000        9.85350       -3.19280
H         16.43610       12.11790       -2.46560
H         12.65020       14.54670       -4.67060
H         12.31360       13.26010       -3.48370
H         12.75460       16.21580       -2.81020
H         12.40360       14.93990       -1.64180
H         11.18480       15.40280       -2.83740
H         14.10700       10.09660       -6.29580
H         15.46340        4.27810       -8.03060
H         15.94140        1.93690       -8.59950
H         19.47270       -0.60490       -6.14540
H         19.99660        0.47790       -7.46110
H         19.19390       -2.45900       -7.80100
H         20.85460       -1.85320       -7.80990
H         19.73280       -1.38790       -9.09640
H         18.43890        4.09410       -4.95680
H         19.46750        5.72240       -6.52370
H         20.72180        7.95360       -6.04510
