
  xtb     03082207183D
 energy: -475.328867219189 gnorm: 0.000531980369 xtb: 6.4.1 (unknown)
270296  0     0  0            999 V2000
  -15.5839   -9.6770   11.4238 C   0  0  0  0  0  0  0  0  0  0  0  0
  -14.6081  -10.2428   10.6856 C   0  0  0  0  0  0  0  0  0  0  0  0
  -14.0029   -9.3308    9.7696 C   0  0  0  0  0  0  0  0  0  0  0  0
  -12.9436   -9.5703    8.8805 C   0  0  0  0  0  0  0  0  0  0  0  0
  -12.3534  -10.9062    8.7304 C   0  0  0  0  0  0  0  0  0  0  0  0
  -10.9750  -11.0990    8.8097 C   0  0  0  0  0  0  0  0  0  0  0  0
  -10.4344  -12.3593    8.6823 C   0  0  0  0  0  0  0  0  0  0  0  0
  -11.2369  -13.4781    8.4542 C   0  0  0  0  0  0  0  0  0  0  0  0
  -10.4101  -15.0256    8.2785 S   0  0  0  0  0  0  0  0  0  0  0  0
  -11.6395  -16.2718    8.8384 C   0  0  0  0  0  0  0  0  0  0  0  0
  -10.9015  -17.5303    9.2507 C   0  0  0  0  0  0  0  0  0  0  0  0
  -12.6076  -13.2644    8.3411 C   0  0  0  0  0  0  0  0  0  0  0  0
  -13.4542  -14.2849    8.0695 F   0  0  0  0  0  0  0  0  0  0  0  0
  -13.1644  -12.0103    8.4907 C   0  0  0  0  0  0  0  0  0  0  0  0
  -12.4887   -8.4832    8.1486 C   0  0  0  0  0  0  0  0  0  0  0  0
  -13.0546   -7.1893    8.2586 C   0  0  0  0  0  0  0  0  0  0  0  0
  -14.1212   -6.9507    9.1394 C   0  0  0  0  0  0  0  0  0  0  0  0
  -14.7180   -5.6149    9.2556 C   0  0  0  0  0  0  0  0  0  0  0  0
  -16.0959   -5.4318    9.1495 C   0  0  0  0  0  0  0  0  0  0  0  0
  -16.6422   -4.1676    9.1929 C   0  0  0  0  0  0  0  0  0  0  0  0
  -15.8438   -3.0364    9.3582 C   0  0  0  0  0  0  0  0  0  0  0  0
  -16.6486   -1.4664    9.3941 S   0  0  0  0  0  0  0  0  0  0  0  0
  -15.4296   -0.3397    8.6011 C   0  0  0  0  0  0  0  0  0  0  0  0
  -16.1725    0.8188    7.9661 C   0  0  0  0  0  0  0  0  0  0  0  0
  -14.4764   -3.2390    9.5200 C   0  0  0  0  0  0  0  0  0  0  0  0
  -13.9134   -4.4969    9.4563 C   0  0  0  0  0  0  0  0  0  0  0  0
  -13.6444   -2.1964    9.7526 F   0  0  0  0  0  0  0  0  0  0  0  0
  -14.5737   -8.0389    9.8717 C   0  0  0  0  0  0  0  0  0  0  0  0
  -15.8432   -8.0036   11.0680 S   0  0  0  0  0  0  0  0  0  0  0  0
  -12.4419   -6.2708    7.3705 C   0  0  0  0  0  0  0  0  0  0  0  0
  -11.4469   -6.8152    6.6166 C   0  0  0  0  0  0  0  0  0  0  0  0
  -11.2141   -8.5195    6.9536 S   0  0  0  0  0  0  0  0  0  0  0  0
  -10.6251   -6.1200    5.6804 C   0  0  0  0  0  0  0  0  0  0  0  0
   -9.7193   -6.6110    4.7900 C   0  0  0  0  0  0  0  0  0  0  0  0
   -9.0555   -5.6011    4.0452 C   0  0  0  0  0  0  0  0  0  0  0  0
   -8.0577   -5.7480    3.0712 C   0  0  0  0  0  0  0  0  0  0  0  0
   -7.5025   -7.0457    2.6659 C   0  0  0  0  0  0  0  0  0  0  0  0
   -6.9748   -7.9379    3.5968 C   0  0  0  0  0  0  0  0  0  0  0  0
   -6.3287   -9.0822    3.1790 C   0  0  0  0  0  0  0  0  0  0  0  0
   -6.2009   -9.3929    1.8261 C   0  0  0  0  0  0  0  0  0  0  0  0
   -5.3174  -10.8635    1.4019 S   0  0  0  0  0  0  0  0  0  0  0  0
   -4.3699  -10.3941   -0.0956 C   0  0  0  0  0  0  0  0  0  0  0  0
   -3.4861   -9.1851    0.1344 C   0  0  0  0  0  0  0  0  0  0  0  0
   -6.8012   -8.5307    0.9131 C   0  0  0  0  0  0  0  0  0  0  0  0
   -6.7906   -8.8027   -0.4094 F   0  0  0  0  0  0  0  0  0  0  0  0
   -7.4223   -7.3665    1.3146 C   0  0  0  0  0  0  0  0  0  0  0  0
   -7.5510   -4.5814    2.5187 C   0  0  0  0  0  0  0  0  0  0  0  0
   -7.9639   -3.2802    2.8978 C   0  0  0  0  0  0  0  0  0  0  0  0
   -8.9768   -3.1337    3.8584 C   0  0  0  0  0  0  0  0  0  0  0  0
   -9.4286   -1.8276    4.3539 C   0  0  0  0  0  0  0  0  0  0  0  0
   -8.5214   -0.8779    4.8202 C   0  0  0  0  0  0  0  0  0  0  0  0
   -8.9671    0.2896    5.4046 C   0  0  0  0  0  0  0  0  0  0  0  0
  -10.3263    0.5552    5.5390 C   0  0  0  0  0  0  0  0  0  0  0  0
  -10.8283    2.0428    6.3608 S   0  0  0  0  0  0  0  0  0  0  0  0
  -12.0353    1.3920    7.5777 C   0  0  0  0  0  0  0  0  0  0  0  0
  -11.4153    0.3469    8.4828 C   0  0  0  0  0  0  0  0  0  0  0  0
  -11.2198   -0.3714    5.0112 C   0  0  0  0  0  0  0  0  0  0  0  0
  -10.7898   -1.5501    4.4392 C   0  0  0  0  0  0  0  0  0  0  0  0
  -12.5503   -0.1454    5.0569 F   0  0  0  0  0  0  0  0  0  0  0  0
   -9.5034   -4.3018    4.3919 C   0  0  0  0  0  0  0  0  0  0  0  0
  -10.7221   -4.3688    5.6353 S   0  0  0  0  0  0  0  0  0  0  0  0
   -7.2268   -2.2730    2.2206 C   0  0  0  0  0  0  0  0  0  0  0  0
   -6.2698   -2.7701    1.3876 C   0  0  0  0  0  0  0  0  0  0  0  0
   -6.2550   -4.5242    1.3575 S   0  0  0  0  0  0  0  0  0  0  0  0
   -5.2703   -2.0860    0.6362 C   0  0  0  0  0  0  0  0  0  0  0  0
   -4.3230   -2.6755   -0.1461 C   0  0  0  0  0  0  0  0  0  0  0  0
   -3.3630   -1.7734   -0.6620 C   0  0  0  0  0  0  0  0  0  0  0  0
   -2.2510   -2.0799   -1.4639 C   0  0  0  0  0  0  0  0  0  0  0  0
   -1.9366   -3.4682   -1.8207 C   0  0  0  0  0  0  0  0  0  0  0  0
   -1.8856   -4.4599   -0.8405 C   0  0  0  0  0  0  0  0  0  0  0  0
   -1.5980   -5.7643   -1.1744 C   0  0  0  0  0  0  0  0  0  0  0  0
   -1.3586   -6.1395   -2.4966 C   0  0  0  0  0  0  0  0  0  0  0  0
   -1.0642   -7.8524   -2.8011 S   0  0  0  0  0  0  0  0  0  0  0  0
    0.0629   -7.8684   -4.2513 C   0  0  0  0  0  0  0  0  0  0  0  0
    0.8331   -9.1739   -4.2564 C   0  0  0  0  0  0  0  0  0  0  0  0
   -1.4172   -5.1409   -3.4644 C   0  0  0  0  0  0  0  0  0  0  0  0
   -1.2328   -5.4296   -4.7718 F   0  0  0  0  0  0  0  0  0  0  0  0
   -1.6831   -3.8255   -3.1398 C   0  0  0  0  0  0  0  0  0  0  0  0
   -1.4540   -1.0141   -1.8486 C   0  0  0  0  0  0  0  0  0  0  0  0
   -1.7163    0.3209   -1.4516 C   0  0  0  0  0  0  0  0  0  0  0  0
   -2.8406    0.6308   -0.6636 C   0  0  0  0  0  0  0  0  0  0  0  0
   -3.1012    2.0205   -0.2682 C   0  0  0  0  0  0  0  0  0  0  0  0
   -3.3375    2.3677    1.0603 C   0  0  0  0  0  0  0  0  0  0  0  0
   -3.5157    3.6872    1.4216 C   0  0  0  0  0  0  0  0  0  0  0  0
   -3.4554    4.7105    0.4797 C   0  0  0  0  0  0  0  0  0  0  0  0
   -3.6003    6.3831    1.0479 S   0  0  0  0  0  0  0  0  0  0  0  0
   -4.7965    7.1157   -0.1309 C   0  0  0  0  0  0  0  0  0  0  0  0
   -6.1289    6.3947   -0.0998 C   0  0  0  0  0  0  0  0  0  0  0  0
   -3.2170    4.3505   -0.8423 C   0  0  0  0  0  0  0  0  0  0  0  0
   -3.0625    3.0341   -1.2232 C   0  0  0  0  0  0  0  0  0  0  0  0
   -3.1053    5.2971   -1.8044 F   0  0  0  0  0  0  0  0  0  0  0  0
   -3.6315   -0.4370   -0.2707 C   0  0  0  0  0  0  0  0  0  0  0  0
   -5.0571   -0.3486    0.7368 S   0  0  0  0  0  0  0  0  0  0  0  0
   -0.6869    1.1990   -1.8634 C   0  0  0  0  0  0  0  0  0  0  0  0
    0.3162    0.5874   -2.5591 C   0  0  0  0  0  0  0  0  0  0  0  0
    0.0287   -1.1260   -2.7618 S   0  0  0  0  0  0  0  0  0  0  0  0
    1.4975    1.2240   -3.0451 C   0  0  0  0  0  0  0  0  0  0  0  0
    1.8482    2.5225   -2.8148 C   0  0  0  0  0  0  0  0  0  0  0  0
    3.0959    2.8865   -3.3718 C   0  0  0  0  0  0  0  0  0  0  0  0
    3.7286    4.1399   -3.2889 C   0  0  0  0  0  0  0  0  0  0  0  0
    3.0266    5.2661   -2.6644 C   0  0  0  0  0  0  0  0  0  0  0  0
    1.7071    5.5467   -3.0151 C   0  0  0  0  0  0  0  0  0  0  0  0
    0.9835    6.5305   -2.3714 C   0  0  0  0  0  0  0  0  0  0  0  0
    1.5557    7.2768   -1.3468 C   0  0  0  0  0  0  0  0  0  0  0  0
    0.7282    8.4964   -0.3860 S   0  0  0  0  0  0  0  0  0  0  0  0
   -1.0357    8.2867   -0.8144 C   0  0  0  0  0  0  0  0  0  0  0  0
   -1.4454    9.1071   -2.0234 C   0  0  0  0  0  0  0  0  0  0  0  0
    2.8974    7.0266   -1.0472 C   0  0  0  0  0  0  0  0  0  0  0  0
    3.4944    7.7504   -0.0794 F   0  0  0  0  0  0  0  0  0  0  0  0
    3.6289    6.0468   -1.6800 C   0  0  0  0  0  0  0  0  0  0  0  0
    5.0135    4.2139   -3.8035 C   0  0  0  0  0  0  0  0  0  0  0  0
    5.6395    3.1208   -4.4522 C   0  0  0  0  0  0  0  0  0  0  0  0
    4.9753    1.8887   -4.6023 C   0  0  0  0  0  0  0  0  0  0  0  0
    5.6041    0.7851   -5.3355 C   0  0  0  0  0  0  0  0  0  0  0  0
    6.1615    1.0036   -6.5933 C   0  0  0  0  0  0  0  0  0  0  0  0
    6.7735   -0.0175   -7.2926 C   0  0  0  0  0  0  0  0  0  0  0  0
    6.8461   -1.3001   -6.7610 C   0  0  0  0  0  0  0  0  0  0  0  0
    7.6359   -2.6765   -7.5306 S   0  0  0  0  0  0  0  0  0  0  0  0
    7.7259   -2.2048   -9.2934 C   0  0  0  0  0  0  0  0  0  0  0  0
    6.3569   -2.1397   -9.9426 C   0  0  0  0  0  0  0  0  0  0  0  0
    6.2815   -1.5057   -5.5013 C   0  0  0  0  0  0  0  0  0  0  0  0
    5.6675   -0.4966   -4.7936 C   0  0  0  0  0  0  0  0  0  0  0  0
    6.3447   -2.7337   -4.9496 F   0  0  0  0  0  0  0  0  0  0  0  0
    3.7219    1.7925   -4.0210 C   0  0  0  0  0  0  0  0  0  0  0  0
    2.7053    0.3718   -3.9829 S   0  0  0  0  0  0  0  0  0  0  0  0
    6.9612    3.4308   -4.8407 C   0  0  0  0  0  0  0  0  0  0  0  0
    7.3550    4.7051   -4.5370 C   0  0  0  0  0  0  0  0  0  0  0  0
    6.0639    5.6013   -3.7545 S   0  0  0  0  0  0  0  0  0  0  0  0
    8.6737    5.2252   -4.7780 C   0  0  0  0  0  0  0  0  0  0  0  0
    9.6513    4.4052   -5.4000 C   0  0  0  0  0  0  0  0  0  0  0  0
    9.5835    3.1616   -5.9031 N   0  0  0  0  0  0  0  0  0  0  0  0
   10.7853    2.9164   -6.3444 N   0  0  0  0  0  0  0  0  0  0  0  0
   11.1256    1.6706   -6.9738 C   0  0  0  0  0  0  0  0  0  0  0  0
   12.4055    1.1052   -6.3733 C   0  0  0  0  0  0  0  0  0  0  0  0
   11.6593    3.8669   -6.1921 N   0  0  0  0  0  0  0  0  0  0  0  0
   10.9877    4.8517   -5.5862 C   0  0  0  0  0  0  0  0  0  0  0  0
   11.4597    6.1214   -5.1745 C   0  0  0  0  0  0  0  0  0  0  0  0
   10.4727    6.9231   -4.6110 C   0  0  0  0  0  0  0  0  0  0  0  0
    9.1386    6.4891   -4.4262 C   0  0  0  0  0  0  0  0  0  0  0  0
    8.0534    7.6160   -3.7017 Cl  0  0  0  0  0  0  0  0  0  0  0  0
   10.8254    8.5190   -4.0686 Cl  0  0  0  0  0  0  0  0  0  0  0  0
   12.8583    6.4202   -5.3480 C   0  0  0  0  0  0  0  0  0  0  0  0
   13.5677    7.5649   -5.1208 C   0  0  0  0  0  0  0  0  0  0  0  0
   14.9550    7.4501   -5.3892 C   0  0  0  0  0  0  0  0  0  0  0  0
   15.9493    8.4280   -5.2153 C   0  0  0  0  0  0  0  0  0  0  0  0
   15.6133    9.7893   -4.7837 C   0  0  0  0  0  0  0  0  0  0  0  0
   16.2782   10.3941   -3.7182 C   0  0  0  0  0  0  0  0  0  0  0  0
   15.9317   11.6610   -3.3026 C   0  0  0  0  0  0  0  0  0  0  0  0
   14.9240   12.3853   -3.9391 C   0  0  0  0  0  0  0  0  0  0  0  0
   14.5871   14.0070   -3.3318 S   0  0  0  0  0  0  0  0  0  0  0  0
   12.7878   14.2281   -3.6385 C   0  0  0  0  0  0  0  0  0  0  0  0
   12.2504   15.2624   -2.6692 C   0  0  0  0  0  0  0  0  0  0  0  0
   14.2982   11.7858   -5.0285 C   0  0  0  0  0  0  0  0  0  0  0  0
   13.3535   12.4454   -5.7374 F   0  0  0  0  0  0  0  0  0  0  0  0
   14.6175   10.5078   -5.4386 C   0  0  0  0  0  0  0  0  0  0  0  0
   17.2541    8.0359   -5.4768 C   0  0  0  0  0  0  0  0  0  0  0  0
   17.6029    6.7316   -5.9066 C   0  0  0  0  0  0  0  0  0  0  0  0
   16.6095    5.7566   -6.0747 C   0  0  0  0  0  0  0  0  0  0  0  0
   16.9191    4.3744   -6.4593 C   0  0  0  0  0  0  0  0  0  0  0  0
   16.2136    3.7350   -7.4781 C   0  0  0  0  0  0  0  0  0  0  0  0
   16.4836    2.4247   -7.8044 C   0  0  0  0  0  0  0  0  0  0  0  0
   17.4552    1.6885   -7.1254 C   0  0  0  0  0  0  0  0  0  0  0  0
   17.6508    0.0023   -7.6083 S   0  0  0  0  0  0  0  0  0  0  0  0
   19.3994   -0.3979   -7.2118 C   0  0  0  0  0  0  0  0  0  0  0  0
   19.8203   -1.6007   -8.0333 C   0  0  0  0  0  0  0  0  0  0  0  0
   18.1386    2.3336   -6.0993 C   0  0  0  0  0  0  0  0  0  0  0  0
   17.8920    3.6528   -5.7758 C   0  0  0  0  0  0  0  0  0  0  0  0
   19.0690    1.6820   -5.3624 F   0  0  0  0  0  0  0  0  0  0  0  0
   15.3015    6.1489   -5.8224 C   0  0  0  0  0  0  0  0  0  0  0  0
   13.8991    5.1250   -5.9250 S   0  0  0  0  0  0  0  0  0  0  0  0
   19.0024    6.6216   -6.1625 C   0  0  0  0  0  0  0  0  0  0  0  0
   19.6713    7.7690   -5.9310 C   0  0  0  0  0  0  0  0  0  0  0  0
   18.6623    9.0647   -5.3862 S   0  0  0  0  0  0  0  0  0  0  0  0
  -16.1910  -10.1382   12.1782 H   0  0  0  0  0  0  0  0  0  0  0  0
  -14.3015  -11.2676   10.7884 H   0  0  0  0  0  0  0  0  0  0  0  0
  -10.3269  -10.2582    9.0019 H   0  0  0  0  0  0  0  0  0  0  0  0
   -9.3685  -12.5062    8.7605 H   0  0  0  0  0  0  0  0  0  0  0  0
  -12.3282  -16.4701    8.0186 H   0  0  0  0  0  0  0  0  0  0  0  0
  -12.1794  -15.8394    9.6794 H   0  0  0  0  0  0  0  0  0  0  0  0
  -11.6152  -18.2813    9.5826 H   0  0  0  0  0  0  0  0  0  0  0  0
  -10.3362  -17.9326    8.4132 H   0  0  0  0  0  0  0  0  0  0  0  0
  -10.2102  -17.3197   10.0636 H   0  0  0  0  0  0  0  0  0  0  0  0
  -14.2326  -11.9024    8.3811 H   0  0  0  0  0  0  0  0  0  0  0  0
  -16.7384   -6.2847    8.9962 H   0  0  0  0  0  0  0  0  0  0  0  0
  -17.7068   -4.0292    9.0876 H   0  0  0  0  0  0  0  0  0  0  0  0
  -14.8931   -0.9203    7.8523 H   0  0  0  0  0  0  0  0  0  0  0  0
  -14.7380    0.0093    9.3667 H   0  0  0  0  0  0  0  0  0  0  0  0
  -16.8701    0.4581    7.2138 H   0  0  0  0  0  0  0  0  0  0  0  0
  -15.4643    1.4939    7.4904 H   0  0  0  0  0  0  0  0  0  0  0  0
  -16.7308    1.3723    8.7176 H   0  0  0  0  0  0  0  0  0  0  0  0
  -12.8480   -4.5951    9.5974 H   0  0  0  0  0  0  0  0  0  0  0  0
  -12.7405   -5.2423    7.2753 H   0  0  0  0  0  0  0  0  0  0  0  0
   -9.5356   -7.6631    4.6639 H   0  0  0  0  0  0  0  0  0  0  0  0
   -7.0293   -7.7069    4.6498 H   0  0  0  0  0  0  0  0  0  0  0  0
   -5.8907   -9.7553    3.8995 H   0  0  0  0  0  0  0  0  0  0  0  0
   -5.0625  -10.2410   -0.9200 H   0  0  0  0  0  0  0  0  0  0  0  0
   -3.7723  -11.2835   -0.2950 H   0  0  0  0  0  0  0  0  0  0  0  0
   -2.8219   -9.3534    0.9798 H   0  0  0  0  0  0  0  0  0  0  0  0
   -2.8845   -9.0010   -0.7541 H   0  0  0  0  0  0  0  0  0  0  0  0
   -4.0833   -8.2969    0.3340 H   0  0  0  0  0  0  0  0  0  0  0  0
   -7.8596   -6.7280    0.5628 H   0  0  0  0  0  0  0  0  0  0  0  0
   -7.4625   -1.0799    4.7692 H   0  0  0  0  0  0  0  0  0  0  0  0
   -8.2639    1.0105    5.7916 H   0  0  0  0  0  0  0  0  0  0  0  0
  -12.3344    2.2764    8.1398 H   0  0  0  0  0  0  0  0  0  0  0  0
  -12.8977    1.0040    7.0399 H   0  0  0  0  0  0  0  0  0  0  0  0
  -11.0969   -0.5229    7.9103 H   0  0  0  0  0  0  0  0  0  0  0  0
  -10.5498    0.7553    9.0001 H   0  0  0  0  0  0  0  0  0  0  0  0
  -12.1419    0.0175    9.2219 H   0  0  0  0  0  0  0  0  0  0  0  0
  -11.5249   -2.2360    4.0482 H   0  0  0  0  0  0  0  0  0  0  0  0
   -7.3953   -1.2186    2.3484 H   0  0  0  0  0  0  0  0  0  0  0  0
   -4.3157   -3.7318   -0.3464 H   0  0  0  0  0  0  0  0  0  0  0  0
   -2.0426   -4.1971    0.1944 H   0  0  0  0  0  0  0  0  0  0  0  0
   -1.5528   -6.5256   -0.4112 H   0  0  0  0  0  0  0  0  0  0  0  0
    0.7325   -7.0161   -4.1468 H   0  0  0  0  0  0  0  0  0  0  0  0
   -0.5367   -7.7605   -5.1538 H   0  0  0  0  0  0  0  0  0  0  0  0
    1.5071   -9.1968   -5.1099 H   0  0  0  0  0  0  0  0  0  0  0  0
    0.1522  -10.0193   -4.3266 H   0  0  0  0  0  0  0  0  0  0  0  0
    1.4183   -9.2767   -3.3453 H   0  0  0  0  0  0  0  0  0  0  0  0
   -1.7245   -3.0964   -3.9339 H   0  0  0  0  0  0  0  0  0  0  0  0
   -3.3617    1.6001    1.8177 H   0  0  0  0  0  0  0  0  0  0  0  0
   -3.6916    3.9515    2.4525 H   0  0  0  0  0  0  0  0  0  0  0  0
   -4.8956    8.1443    0.2153 H   0  0  0  0  0  0  0  0  0  0  0  0
   -4.3575    7.1169   -1.1261 H   0  0  0  0  0  0  0  0  0  0  0  0
   -6.5357    6.3880    0.9090 H   0  0  0  0  0  0  0  0  0  0  0  0
   -6.8341    6.8987   -0.7577 H   0  0  0  0  0  0  0  0  0  0  0  0
   -6.0203    5.3644   -0.4350 H   0  0  0  0  0  0  0  0  0  0  0  0
   -2.9077    2.8088   -2.2672 H   0  0  0  0  0  0  0  0  0  0  0  0
   -0.6741    2.2439   -1.6176 H   0  0  0  0  0  0  0  0  0  0  0  0
    1.2539    3.1961   -2.2269 H   0  0  0  0  0  0  0  0  0  0  0  0
    1.2419    4.9925   -3.8168 H   0  0  0  0  0  0  0  0  0  0  0  0
   -0.0371    6.7028   -2.6712 H   0  0  0  0  0  0  0  0  0  0  0  0
   -1.5643    8.6238    0.0774 H   0  0  0  0  0  0  0  0  0  0  0  0
   -1.2268    7.2237   -0.9462 H   0  0  0  0  0  0  0  0  0  0  0  0
   -1.2839   10.1652   -1.8314 H   0  0  0  0  0  0  0  0  0  0  0  0
   -0.8691    8.8302   -2.9034 H   0  0  0  0  0  0  0  0  0  0  0  0
   -2.5011    8.9491   -2.2366 H   0  0  0  0  0  0  0  0  0  0  0  0
    4.6492    5.8766   -1.3754 H   0  0  0  0  0  0  0  0  0  0  0  0
    6.1023    1.9850   -7.0382 H   0  0  0  0  0  0  0  0  0  0  0  0
    7.2010    0.1974   -8.2588 H   0  0  0  0  0  0  0  0  0  0  0  0
    8.2734   -1.2670   -9.3807 H   0  0  0  0  0  0  0  0  0  0  0  0
    8.3281   -2.9986   -9.7355 H   0  0  0  0  0  0  0  0  0  0  0  0
    6.4590   -1.8963  -10.9985 H   0  0  0  0  0  0  0  0  0  0  0  0
    5.8541   -3.0997   -9.8537 H   0  0  0  0  0  0  0  0  0  0  0  0
    5.7355   -1.3824   -9.4692 H   0  0  0  0  0  0  0  0  0  0  0  0
    5.2631   -0.7140   -3.8179 H   0  0  0  0  0  0  0  0  0  0  0  0
    7.6224    2.7236   -5.3025 H   0  0  0  0  0  0  0  0  0  0  0  0
   10.2755    1.0014   -6.8275 H   0  0  0  0  0  0  0  0  0  0  0  0
   11.2648    1.8507   -8.0448 H   0  0  0  0  0  0  0  0  0  0  0  0
   12.2634    0.8772   -5.3201 H   0  0  0  0  0  0  0  0  0  0  0  0
   13.2090    1.8313   -6.4678 H   0  0  0  0  0  0  0  0  0  0  0  0
   12.6868    0.1940   -6.8926 H   0  0  0  0  0  0  0  0  0  0  0  0
   13.1387    8.4759   -4.7543 H   0  0  0  0  0  0  0  0  0  0  0  0
   17.0500    9.8535   -3.1928 H   0  0  0  0  0  0  0  0  0  0  0  0
   16.4361   12.1179   -2.4656 H   0  0  0  0  0  0  0  0  0  0  0  0
   12.6502   14.5467   -4.6706 H   0  0  0  0  0  0  0  0  0  0  0  0
   12.3136   13.2601   -3.4837 H   0  0  0  0  0  0  0  0  0  0  0  0
   12.7546   16.2158   -2.8102 H   0  0  0  0  0  0  0  0  0  0  0  0
   12.4036   14.9399   -1.6418 H   0  0  0  0  0  0  0  0  0  0  0  0
   11.1848   15.4028   -2.8374 H   0  0  0  0  0  0  0  0  0  0  0  0
   14.1070   10.0966   -6.2958 H   0  0  0  0  0  0  0  0  0  0  0  0
   15.4634    4.2781   -8.0306 H   0  0  0  0  0  0  0  0  0  0  0  0
   15.9414    1.9369   -8.5995 H   0  0  0  0  0  0  0  0  0  0  0  0
   19.4727   -0.6049   -6.1454 H   0  0  0  0  0  0  0  0  0  0  0  0
   19.9966    0.4779   -7.4611 H   0  0  0  0  0  0  0  0  0  0  0  0
   19.1939   -2.4590   -7.8010 H   0  0  0  0  0  0  0  0  0  0  0  0
   20.8546   -1.8532   -7.8099 H   0  0  0  0  0  0  0  0  0  0  0  0
   19.7328   -1.3879   -9.0964 H   0  0  0  0  0  0  0  0  0  0  0  0
   18.4389    4.0941   -4.9568 H   0  0  0  0  0  0  0  0  0  0  0  0
   19.4675    5.7224   -6.5237 H   0  0  0  0  0  0  0  0  0  0  0  0
   20.7218    7.9536   -6.0451 H   0  0  0  0  0  0  0  0  0  0  0  0
  1  2  2  0  0  0  0
  2  3  1  0  0  0  0
  3  4  2  0  0  0  0
  4  5  1  0  0  0  0
  5  6  2  0  0  0  0
  6  7  1  0  0  0  0
  7  8  2  0  0  0  0
  8  9  1  0  0  0  0
  9 10  1  0  0  0  0
 10 11  1  0  0  0  0
  8 12  1  0  0  0  0
 12 13  1  0  0  0  0
 12 14  2  0  0  0  0
  4 15  1  0  0  0  0
 15 16  2  0  0  0  0
 16 17  1  0  0  0  0
 17 18  1  0  0  0  0
 18 19  2  0  0  0  0
 19 20  1  0  0  0  0
 20 21  2  0  0  0  0
 21 22  1  0  0  0  0
 22 23  1  0  0  0  0
 23 24  1  0  0  0  0
 21 25  1  0  0  0  0
 25 26  2  0  0  0  0
 25 27  1  0  0  0  0
 17 28  2  0  0  0  0
 28 29  1  0  0  0  0
 16 30  1  0  0  0  0
 30 31  2  0  0  0  0
 31 32  1  0  0  0  0
 31 33  1  0  0  0  0
 33 34  2  0  0  0  0
 34 35  1  0  0  0  0
 35 36  2  0  0  0  0
 36 37  1  0  0  0  0
 37 38  2  0  0  0  0
 38 39  1  0  0  0  0
 39 40  2  0  0  0  0
 40 41  1  0  0  0  0
 41 42  1  0  0  0  0
 42 43  1  0  0  0  0
 40 44  1  0  0  0  0
 44 45  1  0  0  0  0
 44 46  2  0  0  0  0
 36 47  1  0  0  0  0
 47 48  2  0  0  0  0
 48 49  1  0  0  0  0
 49 50  1  0  0  0  0
 50 51  2  0  0  0  0
 51 52  1  0  0  0  0
 52 53  2  0  0  0  0
 53 54  1  0  0  0  0
 54 55  1  0  0  0  0
 55 56  1  0  0  0  0
 53 57  1  0  0  0  0
 57 58  2  0  0  0  0
 57 59  1  0  0  0  0
 49 60  2  0  0  0  0
 60 61  1  0  0  0  0
 48 62  1  0  0  0  0
 62 63  2  0  0  0  0
 63 64  1  0  0  0  0
 63 65  1  0  0  0  0
 65 66  2  0  0  0  0
 66 67  1  0  0  0  0
 67 68  2  0  0  0  0
 68 69  1  0  0  0  0
 69 70  2  0  0  0  0
 70 71  1  0  0  0  0
 71 72  2  0  0  0  0
 72 73  1  0  0  0  0
 73 74  1  0  0  0  0
 74 75  1  0  0  0  0
 72 76  1  0  0  0  0
 76 77  1  0  0  0  0
 76 78  2  0  0  0  0
 68 79  1  0  0  0  0
 79 80  2  0  0  0  0
 80 81  1  0  0  0  0
 81 82  1  0  0  0  0
 82 83  2  0  0  0  0
 83 84  1  0  0  0  0
 84 85  2  0  0  0  0
 85 86  1  0  0  0  0
 86 87  1  0  0  0  0
 87 88  1  0  0  0  0
 85 89  1  0  0  0  0
 89 90  2  0  0  0  0
 89 91  1  0  0  0  0
 81 92  2  0  0  0  0
 92 93  1  0  0  0  0
 80 94  1  0  0  0  0
 94 95  2  0  0  0  0
 95 96  1  0  0  0  0
 95 97  1  0  0  0  0
 97 98  2  0  0  0  0
 98 99  1  0  0  0  0
 99100  2  0  0  0  0
100101  1  0  0  0  0
101102  2  0  0  0  0
102103  1  0  0  0  0
103104  2  0  0  0  0
104105  1  0  0  0  0
105106  1  0  0  0  0
106107  1  0  0  0  0
104108  1  0  0  0  0
108109  1  0  0  0  0
108110  2  0  0  0  0
100111  1  0  0  0  0
111112  2  0  0  0  0
112113  1  0  0  0  0
113114  1  0  0  0  0
114115  2  0  0  0  0
115116  1  0  0  0  0
116117  2  0  0  0  0
117118  1  0  0  0  0
118119  1  0  0  0  0
119120  1  0  0  0  0
117121  1  0  0  0  0
121122  2  0  0  0  0
121123  1  0  0  0  0
113124  2  0  0  0  0
124125  1  0  0  0  0
112126  1  0  0  0  0
126127  2  0  0  0  0
127128  1  0  0  0  0
127129  1  0  0  0  0
129130  1  0  0  0  0
130131  2  0  0  0  0
131132  1  0  0  0  0
132133  1  0  0  0  0
133134  1  0  0  0  0
132135  1  0  0  0  0
135136  2  0  0  0  0
136137  1  0  0  0  0
137138  2  0  0  0  0
138139  1  0  0  0  0
139140  1  0  0  0  0
138141  1  0  0  0  0
137142  1  0  0  0  0
142143  2  0  0  0  0
143144  1  0  0  0  0
144145  2  0  0  0  0
145146  1  0  0  0  0
146147  2  0  0  0  0
147148  1  0  0  0  0
148149  2  0  0  0  0
149150  1  0  0  0  0
150151  1  0  0  0  0
151152  1  0  0  0  0
149153  1  0  0  0  0
153154  1  0  0  0  0
153155  2  0  0  0  0
145156  1  0  0  0  0
156157  2  0  0  0  0
157158  1  0  0  0  0
158159  1  0  0  0  0
159160  2  0  0  0  0
160161  1  0  0  0  0
161162  2  0  0  0  0
162163  1  0  0  0  0
163164  1  0  0  0  0
164165  1  0  0  0  0
162166  1  0  0  0  0
166167  2  0  0  0  0
166168  1  0  0  0  0
158169  2  0  0  0  0
169170  1  0  0  0  0
157171  1  0  0  0  0
171172  2  0  0  0  0
172173  1  0  0  0  0
 29  1  1  0  0  0  0
 61 33  1  0  0  0  0
 93 65  1  0  0  0  0
125 97  1  0  0  0  0
139129  2  0  0  0  0
170142  1  0  0  0  0
 28  3  1  0  0  0  0
 60 35  1  0  0  0  0
 92 67  1  0  0  0  0
124 99  1  0  0  0  0
136130  1  0  0  0  0
169144  1  0  0  0  0
 14  5  1  0  0  0  0
 32 15  1  0  0  0  0
 46 37  1  0  0  0  0
 64 47  1  0  0  0  0
 78 69  1  0  0  0  0
 96 79  1  0  0  0  0
110101  1  0  0  0  0
128111  1  0  0  0  0
155146  1  0  0  0  0
173156  1  0  0  0  0
 26 18  1  0  0  0  0
 58 50  1  0  0  0  0
 90 82  1  0  0  0  0
122114  1  0  0  0  0
167159  1  0  0  0  0
  1174  1  0  0  0  0
  2175  1  0  0  0  0
  6176  1  0  0  0  0
  7177  1  0  0  0  0
 10178  1  0  0  0  0
 10179  1  0  0  0  0
 11180  1  0  0  0  0
 11181  1  0  0  0  0
 11182  1  0  0  0  0
 14183  1  0  0  0  0
 19184  1  0  0  0  0
 20185  1  0  0  0  0
 23186  1  0  0  0  0
 23187  1  0  0  0  0
 24188  1  0  0  0  0
 24189  1  0  0  0  0
 24190  1  0  0  0  0
 26191  1  0  0  0  0
 30192  1  0  0  0  0
 34193  1  0  0  0  0
 38194  1  0  0  0  0
 39195  1  0  0  0  0
 42196  1  0  0  0  0
 42197  1  0  0  0  0
 43198  1  0  0  0  0
 43199  1  0  0  0  0
 43200  1  0  0  0  0
 46201  1  0  0  0  0
 51202  1  0  0  0  0
 52203  1  0  0  0  0
 55204  1  0  0  0  0
 55205  1  0  0  0  0
 56206  1  0  0  0  0
 56207  1  0  0  0  0
 56208  1  0  0  0  0
 58209  1  0  0  0  0
 62210  1  0  0  0  0
 66211  1  0  0  0  0
 70212  1  0  0  0  0
 71213  1  0  0  0  0
 74214  1  0  0  0  0
 74215  1  0  0  0  0
 75216  1  0  0  0  0
 75217  1  0  0  0  0
 75218  1  0  0  0  0
 78219  1  0  0  0  0
 83220  1  0  0  0  0
 84221  1  0  0  0  0
 87222  1  0  0  0  0
 87223  1  0  0  0  0
 88224  1  0  0  0  0
 88225  1  0  0  0  0
 88226  1  0  0  0  0
 90227  1  0  0  0  0
 94228  1  0  0  0  0
 98229  1  0  0  0  0
102230  1  0  0  0  0
103231  1  0  0  0  0
106232  1  0  0  0  0
106233  1  0  0  0  0
107234  1  0  0  0  0
107235  1  0  0  0  0
107236  1  0  0  0  0
110237  1  0  0  0  0
115238  1  0  0  0  0
116239  1  0  0  0  0
119240  1  0  0  0  0
119241  1  0  0  0  0
120242  1  0  0  0  0
120243  1  0  0  0  0
120244  1  0  0  0  0
122245  1  0  0  0  0
126246  1  0  0  0  0
133247  1  0  0  0  0
133248  1  0  0  0  0
134249  1  0  0  0  0
134250  1  0  0  0  0
134251  1  0  0  0  0
143252  1  0  0  0  0
147253  1  0  0  0  0
148254  1  0  0  0  0
151255  1  0  0  0  0
151256  1  0  0  0  0
152257  1  0  0  0  0
152258  1  0  0  0  0
152259  1  0  0  0  0
155260  1  0  0  0  0
160261  1  0  0  0  0
161262  1  0  0  0  0
164263  1  0  0  0  0
164264  1  0  0  0  0
165265  1  0  0  0  0
165266  1  0  0  0  0
165267  1  0  0  0  0
167268  1  0  0  0  0
171269  1  0  0  0  0
172270  1  0  0  0  0
M  END
