
  xtb     03042203033D
 energy: -424.009465313481 gnorm: 0.000204861239 xtb: 6.4.1 (unknown)
232255  0     0  0            999 V2000
    3.4385   -4.6198    9.5317 C   0  0  0  0  0  0  0  0  0  0  0  0
    3.2730   -5.2850    7.9637 S   0  0  0  0  0  0  0  0  0  0  0  0
    1.5357   -5.2968    8.0776 C   0  0  0  0  0  0  0  0  0  0  0  0
    1.1387   -4.7934    9.3027 C   0  0  0  0  0  0  0  0  0  0  0  0
    2.2234   -4.4095   10.1212 C   0  0  0  0  0  0  0  0  0  0  0  0
    2.1286   -3.8851   11.3767 O   0  0  0  0  0  0  0  0  0  0  0  0
    0.9877   -3.4649   11.9416 C   0  0  0  0  0  0  0  0  0  0  0  0
    1.0141   -3.0176   13.0518 O   0  0  0  0  0  0  0  0  0  0  0  0
   -0.3535   -3.5387   11.2108 C   0  0  0  0  0  0  0  0  0  0  0  0
   -1.3141   -2.9673   11.6423 O   0  0  0  0  0  0  0  0  0  0  0  0
   -0.5388   -4.5525    9.7625 S   0  0  0  0  0  0  0  0  0  0  0  0
    0.6796   -5.7453    7.0392 C   0  0  0  0  0  0  0  0  0  0  0  0
    1.1013   -6.0791    5.7986 C   0  0  0  0  0  0  0  0  0  0  0  0
    0.2469   -6.4696    4.7353 C   0  0  0  0  0  0  0  0  0  0  0  0
    0.8318   -6.4766    3.1008 S   0  0  0  0  0  0  0  0  0  0  0  0
   -0.7375   -6.8451    2.4508 C   0  0  0  0  0  0  0  0  0  0  0  0
   -1.6555   -6.9841    3.4818 C   0  0  0  0  0  0  0  0  0  0  0  0
   -1.1041   -6.8005    4.7571 C   0  0  0  0  0  0  0  0  0  0  0  0
   -1.7462   -6.9927    5.9391 O   0  0  0  0  0  0  0  0  0  0  0  0
   -3.0571   -7.2693    6.0751 C   0  0  0  0  0  0  0  0  0  0  0  0
   -3.4747   -7.5635    7.1593 O   0  0  0  0  0  0  0  0  0  0  0  0
   -4.0063   -7.2545    4.8883 C   0  0  0  0  0  0  0  0  0  0  0  0
   -5.1948   -7.2978    5.0354 O   0  0  0  0  0  0  0  0  0  0  0  0
   -3.3649   -7.2876    3.2250 S   0  0  0  0  0  0  0  0  0  0  0  0
   -0.9948   -6.8894    1.0584 C   0  0  0  0  0  0  0  0  0  0  0  0
   -0.0311   -6.8328    0.1106 C   0  0  0  0  0  0  0  0  0  0  0  0
   -0.2625   -6.6523   -1.2788 C   0  0  0  0  0  0  0  0  0  0  0  0
    0.6951   -6.4764   -2.2424 C   0  0  0  0  0  0  0  0  0  0  0  0
    0.1836   -6.0456   -3.4892 C   0  0  0  0  0  0  0  0  0  0  0  0
    0.9210   -5.6004   -4.6045 C   0  0  0  0  0  0  0  0  0  0  0  0
    2.3780   -5.7688   -4.6511 C   0  0  0  0  0  0  0  0  0  0  0  0
    2.9495   -7.0223   -4.4288 C   0  0  0  0  0  0  0  0  0  0  0  0
    4.3142   -7.1925   -4.4909 C   0  0  0  0  0  0  0  0  0  0  0  0
    5.1730   -6.1229   -4.7547 C   0  0  0  0  0  0  0  0  0  0  0  0
    6.8976   -6.4826   -4.7614 S   0  0  0  0  0  0  0  0  0  0  0  0
    7.6489   -5.1881   -5.8268 C   0  0  0  0  0  0  0  0  0  0  0  0
    9.0079   -5.6736   -6.2910 C   0  0  0  0  0  0  0  0  0  0  0  0
    4.5894   -4.8728   -4.9395 C   0  0  0  0  0  0  0  0  0  0  0  0
    5.3456   -3.7696   -5.1404 F   0  0  0  0  0  0  0  0  0  0  0  0
    3.2212   -4.6938   -4.9068 C   0  0  0  0  0  0  0  0  0  0  0  0
    0.2079   -4.9341   -5.5883 C   0  0  0  0  0  0  0  0  0  0  0  0
   -1.2038   -4.8092   -5.5567 C   0  0  0  0  0  0  0  0  0  0  0  0
   -1.9507   -5.3386   -4.4898 C   0  0  0  0  0  0  0  0  0  0  0  0
   -3.4047   -5.1284   -4.4533 C   0  0  0  0  0  0  0  0  0  0  0  0
   -4.0087   -4.4318   -3.4080 C   0  0  0  0  0  0  0  0  0  0  0  0
   -5.3551   -4.1447   -3.4472 C   0  0  0  0  0  0  0  0  0  0  0  0
   -6.1652   -4.5589   -4.5068 C   0  0  0  0  0  0  0  0  0  0  0  0
   -7.8720   -4.1245   -4.3894 S   0  0  0  0  0  0  0  0  0  0  0  0
   -8.5128   -4.0738   -6.0999 C   0  0  0  0  0  0  0  0  0  0  0  0
   -7.8086   -3.0358   -6.9487 C   0  0  0  0  0  0  0  0  0  0  0  0
   -5.5555   -5.3020   -5.5138 C   0  0  0  0  0  0  0  0  0  0  0  0
   -4.1992   -5.5613   -5.5082 C   0  0  0  0  0  0  0  0  0  0  0  0
   -6.2668   -5.7977   -6.5510 F   0  0  0  0  0  0  0  0  0  0  0  0
   -1.2285   -5.9027   -3.4536 C   0  0  0  0  0  0  0  0  0  0  0  0
   -1.8807   -6.3967   -1.9136 S   0  0  0  0  0  0  0  0  0  0  0  0
   -1.6798   -3.8962   -6.5250 C   0  0  0  0  0  0  0  0  0  0  0  0
   -0.6868   -3.2830   -7.2396 C   0  0  0  0  0  0  0  0  0  0  0  0
    0.8832   -3.9876   -6.8963 S   0  0  0  0  0  0  0  0  0  0  0  0
   -0.7974   -1.9654   -7.7872 C   0  0  0  0  0  0  0  0  0  0  0  0
   -1.9258   -1.1949   -7.7158 C   0  0  0  0  0  0  0  0  0  0  0  0
   -1.6554    0.1874   -7.5939 C   0  0  0  0  0  0  0  0  0  0  0  0
   -2.5500    1.1582   -7.1166 C   0  0  0  0  0  0  0  0  0  0  0  0
   -3.9443    0.8676   -6.7478 C   0  0  0  0  0  0  0  0  0  0  0  0
   -4.2446   -0.1642   -5.8584 C   0  0  0  0  0  0  0  0  0  0  0  0
   -5.5279   -0.3304   -5.3831 C   0  0  0  0  0  0  0  0  0  0  0  0
   -6.5611    0.5187   -5.7761 C   0  0  0  0  0  0  0  0  0  0  0  0
   -8.1660    0.2350   -5.0808 S   0  0  0  0  0  0  0  0  0  0  0  0
   -8.8021    1.9154   -4.7362 C   0  0  0  0  0  0  0  0  0  0  0  0
   -7.8963    2.6965   -3.8061 C   0  0  0  0  0  0  0  0  0  0  0  0
   -6.2569    1.5107   -6.7036 C   0  0  0  0  0  0  0  0  0  0  0  0
   -7.2182    2.3303   -7.1760 F   0  0  0  0  0  0  0  0  0  0  0  0
   -4.9712    1.7037   -7.1686 C   0  0  0  0  0  0  0  0  0  0  0  0
   -1.9924    2.3571   -6.7096 C   0  0  0  0  0  0  0  0  0  0  0  0
   -0.6109    2.6476   -6.8026 C   0  0  0  0  0  0  0  0  0  0  0  0
    0.2710    1.7170   -7.3883 C   0  0  0  0  0  0  0  0  0  0  0  0
    1.7000    2.0455   -7.4573 C   0  0  0  0  0  0  0  0  0  0  0  0
    2.6930    1.1907   -6.9828 C   0  0  0  0  0  0  0  0  0  0  0  0
    4.0155    1.5820   -6.9828 C   0  0  0  0  0  0  0  0  0  0  0  0
    4.4026    2.8306   -7.4613 C   0  0  0  0  0  0  0  0  0  0  0  0
    6.1222    3.2492   -7.4124 S   0  0  0  0  0  0  0  0  0  0  0  0
    6.1017    4.9373   -6.6996 C   0  0  0  0  0  0  0  0  0  0  0  0
    5.4724    4.9598   -5.3205 C   0  0  0  0  0  0  0  0  0  0  0  0
    3.4077    3.6564   -7.9771 C   0  0  0  0  0  0  0  0  0  0  0  0
    2.0789    3.2879   -7.9625 C   0  0  0  0  0  0  0  0  0  0  0  0
    3.7162    4.8605   -8.5040 F   0  0  0  0  0  0  0  0  0  0  0  0
   -0.2700    0.4797   -7.7103 C   0  0  0  0  0  0  0  0  0  0  0  0
    0.6385   -0.9818   -8.0232 S   0  0  0  0  0  0  0  0  0  0  0  0
   -0.2393    3.7010   -5.9224 C   0  0  0  0  0  0  0  0  0  0  0  0
   -1.2662    4.1415   -5.1389 C   0  0  0  0  0  0  0  0  0  0  0  0
   -2.8145    3.4814   -5.6538 S   0  0  0  0  0  0  0  0  0  0  0  0
   -1.1494    4.6051   -3.7916 C   0  0  0  0  0  0  0  0  0  0  0  0
   -2.0257    4.2411   -2.8100 C   0  0  0  0  0  0  0  0  0  0  0  0
   -1.4514    4.2142   -1.5182 C   0  0  0  0  0  0  0  0  0  0  0  0
   -1.9987    3.6141   -0.3748 C   0  0  0  0  0  0  0  0  0  0  0  0
   -3.2996    2.9313   -0.4155 C   0  0  0  0  0  0  0  0  0  0  0  0
   -3.5497    1.9614   -1.3834 C   0  0  0  0  0  0  0  0  0  0  0  0
   -4.7510    1.2816   -1.4266 C   0  0  0  0  0  0  0  0  0  0  0  0
   -5.7491    1.5475   -0.4951 C   0  0  0  0  0  0  0  0  0  0  0  0
   -7.3204    0.7590   -0.4444 S   0  0  0  0  0  0  0  0  0  0  0  0
   -7.1383   -0.6361   -1.6213 C   0  0  0  0  0  0  0  0  0  0  0  0
   -8.3956   -1.4818   -1.5688 C   0  0  0  0  0  0  0  0  0  0  0  0
   -5.4838    2.5214    0.4713 C   0  0  0  0  0  0  0  0  0  0  0  0
   -6.4319    2.8072    1.3848 F   0  0  0  0  0  0  0  0  0  0  0  0
   -4.2874    3.2009    0.5281 C   0  0  0  0  0  0  0  0  0  0  0  0
   -1.1782    3.5540    0.7393 C   0  0  0  0  0  0  0  0  0  0  0  0
    0.1331    4.0912    0.7708 C   0  0  0  0  0  0  0  0  0  0  0  0
    0.6738    4.7049   -0.3759 C   0  0  0  0  0  0  0  0  0  0  0  0
    2.0355    5.2528   -0.3718 C   0  0  0  0  0  0  0  0  0  0  0  0
    2.9648    4.9146   -1.3548 C   0  0  0  0  0  0  0  0  0  0  0  0
    4.2272    5.4632   -1.3451 C   0  0  0  0  0  0  0  0  0  0  0  0
    4.6270    6.3658   -0.3574 C   0  0  0  0  0  0  0  0  0  0  0  0
    6.2830    6.9568   -0.4711 S   0  0  0  0  0  0  0  0  0  0  0  0
    6.2993    8.5416    0.4571 C   0  0  0  0  0  0  0  0  0  0  0  0
    7.5348    9.3224    0.0542 C   0  0  0  0  0  0  0  0  0  0  0  0
    3.6985    6.6707    0.6340 C   0  0  0  0  0  0  0  0  0  0  0  0
    2.4252    6.1372    0.6283 C   0  0  0  0  0  0  0  0  0  0  0  0
    4.0077    7.5026    1.6557 F   0  0  0  0  0  0  0  0  0  0  0  0
   -0.1213    4.7030   -1.5123 C   0  0  0  0  0  0  0  0  0  0  0  0
    0.3806    5.1541   -3.1287 S   0  0  0  0  0  0  0  0  0  0  0  0
    0.8123    3.7401    1.9679 C   0  0  0  0  0  0  0  0  0  0  0  0
    0.0766    2.9465    2.7980 C   0  0  0  0  0  0  0  0  0  0  0  0
   -1.5385    2.6554    2.1858 S   0  0  0  0  0  0  0  0  0  0  0  0
    0.4938    2.2863    3.9978 C   0  0  0  0  0  0  0  0  0  0  0  0
    1.5416    2.5760    4.8184 C   0  0  0  0  0  0  0  0  0  0  0  0
    1.6874    1.6612    5.8965 C   0  0  0  0  0  0  0  0  0  0  0  0
    2.6403    1.6710    6.9276 C   0  0  0  0  0  0  0  0  0  0  0  0
    3.6588    2.7231    7.0260 C   0  0  0  0  0  0  0  0  0  0  0  0
    3.3123    4.0735    6.9922 C   0  0  0  0  0  0  0  0  0  0  0  0
    4.2798    5.0482    7.0979 C   0  0  0  0  0  0  0  0  0  0  0  0
    5.6316    4.7242    7.2261 C   0  0  0  0  0  0  0  0  0  0  0  0
    6.7680    6.0693    7.3017 S   0  0  0  0  0  0  0  0  0  0  0  0
    8.1839    5.4229    8.2784 C   0  0  0  0  0  0  0  0  0  0  0  0
    8.9514    6.5963    8.8548 C   0  0  0  0  0  0  0  0  0  0  0  0
    5.9630    3.3721    7.2371 C   0  0  0  0  0  0  0  0  0  0  0  0
    7.2520    2.9700    7.3103 F   0  0  0  0  0  0  0  0  0  0  0  0
    5.0013    2.3858    7.1568 C   0  0  0  0  0  0  0  0  0  0  0  0
    2.5682    0.6378    7.8531 C   0  0  0  0  0  0  0  0  0  0  0  0
    1.5977   -0.3906    7.7949 C   0  0  0  0  0  0  0  0  0  0  0  0
    0.6652   -0.4183    6.7518 C   0  0  0  0  0  0  0  0  0  0  0  0
   -0.3403   -1.4826    6.6074 C   0  0  0  0  0  0  0  0  0  0  0  0
   -1.2618   -1.7639    7.6129 C   0  0  0  0  0  0  0  0  0  0  0  0
   -2.2645   -2.6900    7.4050 C   0  0  0  0  0  0  0  0  0  0  0  0
   -2.3689   -3.3737    6.1982 C   0  0  0  0  0  0  0  0  0  0  0  0
   -3.7379   -4.4867    5.9696 S   0  0  0  0  0  0  0  0  0  0  0  0
   -4.4269   -3.9111    4.3694 C   0  0  0  0  0  0  0  0  0  0  0  0
   -4.8569   -2.4600    4.4308 C   0  0  0  0  0  0  0  0  0  0  0  0
   -1.3947   -3.1423    5.2346 C   0  0  0  0  0  0  0  0  0  0  0  0
   -0.4037   -2.2011    5.4168 C   0  0  0  0  0  0  0  0  0  0  0  0
   -1.4036   -3.8388    4.0740 F   0  0  0  0  0  0  0  0  0  0  0  0
    0.7284    0.6199    5.8345 C   0  0  0  0  0  0  0  0  0  0  0  0
   -0.3653    0.8417    4.4985 S   0  0  0  0  0  0  0  0  0  0  0  0
    1.7361   -1.3077    8.8768 C   0  0  0  0  0  0  0  0  0  0  0  0
    2.7393   -0.9836    9.7178 C   0  0  0  0  0  0  0  0  0  0  0  0
    3.5973    0.4422    9.2494 S   0  0  0  0  0  0  0  0  0  0  0  0
    4.4037   -4.4147    9.9462 H   0  0  0  0  0  0  0  0  0  0  0  0
   -0.3699   -5.7848    7.2921 H   0  0  0  0  0  0  0  0  0  0  0  0
    2.1530   -5.9953    5.5554 H   0  0  0  0  0  0  0  0  0  0  0  0
   -2.0381   -6.9325    0.7723 H   0  0  0  0  0  0  0  0  0  0  0  0
    1.0085   -6.8420    0.4152 H   0  0  0  0  0  0  0  0  0  0  0  0
    1.7465   -6.5834   -2.0429 H   0  0  0  0  0  0  0  0  0  0  0  0
    2.3117   -7.8712   -4.2347 H   0  0  0  0  0  0  0  0  0  0  0  0
    4.7505   -8.1669   -4.3355 H   0  0  0  0  0  0  0  0  0  0  0  0
    7.7364   -4.2712   -5.2462 H   0  0  0  0  0  0  0  0  0  0  0  0
    6.9774   -5.0312   -6.6694 H   0  0  0  0  0  0  0  0  0  0  0  0
    9.4693   -4.9177   -6.9226 H   0  0  0  0  0  0  0  0  0  0  0  0
    8.9119   -6.5953   -6.8604 H   0  0  0  0  0  0  0  0  0  0  0  0
    9.6583   -5.8606   -5.4394 H   0  0  0  0  0  0  0  0  0  0  0  0
    2.8333   -3.6973   -5.0458 H   0  0  0  0  0  0  0  0  0  0  0  0
   -3.4107   -4.0843   -2.5800 H   0  0  0  0  0  0  0  0  0  0  0  0
   -5.8165   -3.5852   -2.6481 H   0  0  0  0  0  0  0  0  0  0  0  0
   -8.4527   -5.0711   -6.5298 H   0  0  0  0  0  0  0  0  0  0  0  0
   -9.5610   -3.8111   -5.9560 H   0  0  0  0  0  0  0  0  0  0  0  0
   -8.2691   -2.9995   -7.9335 H   0  0  0  0  0  0  0  0  0  0  0  0
   -6.7551   -3.2774   -7.0732 H   0  0  0  0  0  0  0  0  0  0  0  0
   -7.8882   -2.0540   -6.4878 H   0  0  0  0  0  0  0  0  0  0  0  0
   -3.7763   -6.1257   -6.3253 H   0  0  0  0  0  0  0  0  0  0  0  0
   -2.7138   -3.6112   -6.5884 H   0  0  0  0  0  0  0  0  0  0  0  0
   -2.9160   -1.6022   -7.6351 H   0  0  0  0  0  0  0  0  0  0  0  0
   -3.4566   -0.8080   -5.4968 H   0  0  0  0  0  0  0  0  0  0  0  0
   -5.7493   -1.1220   -4.6824 H   0  0  0  0  0  0  0  0  0  0  0  0
   -8.9583    2.4293   -5.6819 H   0  0  0  0  0  0  0  0  0  0  0  0
   -9.7700    1.7235   -4.2729 H   0  0  0  0  0  0  0  0  0  0  0  0
   -8.3200    3.6840   -3.6361 H   0  0  0  0  0  0  0  0  0  0  0  0
   -7.8007    2.1955   -2.8458 H   0  0  0  0  0  0  0  0  0  0  0  0
   -6.9031    2.8205   -4.2366 H   0  0  0  0  0  0  0  0  0  0  0  0
   -4.7852    2.5041   -7.8678 H   0  0  0  0  0  0  0  0  0  0  0  0
    2.4281    0.2309   -6.5697 H   0  0  0  0  0  0  0  0  0  0  0  0
    4.7770    0.9246   -6.5936 H   0  0  0  0  0  0  0  0  0  0  0  0
    5.5963    5.6079   -7.3908 H   0  0  0  0  0  0  0  0  0  0  0  0
    7.1571    5.2045   -6.6538 H   0  0  0  0  0  0  0  0  0  0  0  0
    5.5528    5.9591   -4.8970 H   0  0  0  0  0  0  0  0  0  0  0  0
    4.4183    4.6907   -5.3686 H   0  0  0  0  0  0  0  0  0  0  0  0
    5.9788    4.2577   -4.6610 H   0  0  0  0  0  0  0  0  0  0  0  0
    1.3450    3.9684   -8.3666 H   0  0  0  0  0  0  0  0  0  0  0  0
    0.7818    3.9914   -5.7491 H   0  0  0  0  0  0  0  0  0  0  0  0
   -3.0240    3.9017   -3.0182 H   0  0  0  0  0  0  0  0  0  0  0  0
   -2.7825    1.7149   -2.1024 H   0  0  0  0  0  0  0  0  0  0  0  0
   -4.9039    0.5417   -2.1954 H   0  0  0  0  0  0  0  0  0  0  0  0
   -6.9986   -0.2280   -2.6216 H   0  0  0  0  0  0  0  0  0  0  0  0
   -6.2608   -1.2077   -1.3180 H   0  0  0  0  0  0  0  0  0  0  0  0
   -9.2637   -0.8831   -1.8328 H   0  0  0  0  0  0  0  0  0  0  0  0
   -8.5460   -1.8879   -0.5715 H   0  0  0  0  0  0  0  0  0  0  0  0
   -8.3170   -2.3032   -2.2774 H   0  0  0  0  0  0  0  0  0  0  0  0
   -4.1385    3.9427    1.2967 H   0  0  0  0  0  0  0  0  0  0  0  0
    2.7009    4.2048   -2.1227 H   0  0  0  0  0  0  0  0  0  0  0  0
    4.9404    5.2002   -2.1106 H   0  0  0  0  0  0  0  0  0  0  0  0
    6.3065    8.3173    1.5225 H   0  0  0  0  0  0  0  0  0  0  0  0
    5.3900    9.0810    0.1967 H   0  0  0  0  0  0  0  0  0  0  0  0
    8.4354    8.7590    0.2879 H   0  0  0  0  0  0  0  0  0  0  0  0
    7.5633   10.2655    0.5953 H   0  0  0  0  0  0  0  0  0  0  0  0
    7.5256    9.5308   -1.0133 H   0  0  0  0  0  0  0  0  0  0  0  0
    1.7392    6.4308    1.4081 H   0  0  0  0  0  0  0  0  0  0  0  0
    1.8356    4.0031    2.1651 H   0  0  0  0  0  0  0  0  0  0  0  0
    2.1928    3.4169    4.6653 H   0  0  0  0  0  0  0  0  0  0  0  0
    2.2735    4.3565    6.9171 H   0  0  0  0  0  0  0  0  0  0  0  0
    4.0067    6.0919    7.0848 H   0  0  0  0  0  0  0  0  0  0  0  0
    7.7722    4.7954    9.0673 H   0  0  0  0  0  0  0  0  0  0  0  0
    8.8138    4.8261    7.6206 H   0  0  0  0  0  0  0  0  0  0  0  0
    9.7929    6.2312    9.4394 H   0  0  0  0  0  0  0  0  0  0  0  0
    8.3102    7.1942    9.4986 H   0  0  0  0  0  0  0  0  0  0  0  0
    9.3301    7.2329    8.0583 H   0  0  0  0  0  0  0  0  0  0  0  0
    5.3195    1.3550    7.1626 H   0  0  0  0  0  0  0  0  0  0  0  0
   -1.2230   -1.2194    8.5443 H   0  0  0  0  0  0  0  0  0  0  0  0
   -2.9989   -2.8813    8.1716 H   0  0  0  0  0  0  0  0  0  0  0  0
   -5.2812   -4.5707    4.2164 H   0  0  0  0  0  0  0  0  0  0  0  0
   -3.6925   -4.0852    3.5843 H   0  0  0  0  0  0  0  0  0  0  0  0
   -4.0007   -1.8046    4.5831 H   0  0  0  0  0  0  0  0  0  0  0  0
   -5.3398   -2.1841    3.4958 H   0  0  0  0  0  0  0  0  0  0  0  0
   -5.5617   -2.3057    5.2446 H   0  0  0  0  0  0  0  0  0  0  0  0
    0.3159   -2.0393    4.6294 H   0  0  0  0  0  0  0  0  0  0  0  0
    1.0908   -2.1587    8.9927 H   0  0  0  0  0  0  0  0  0  0  0  0
    3.0504   -1.4912   10.6102 H   0  0  0  0  0  0  0  0  0  0  0  0
  1  2  1  0  0  0  0
  2  3  1  0  0  0  0
  3  4  2  0  0  0  0
  4  5  1  0  0  0  0
  5  6  1  0  0  0  0
  6  7  1  0  0  0  0
  7  8  2  0  0  0  0
  7  9  1  0  0  0  0
  9 10  2  0  0  0  0
  9 11  1  0  0  0  0
  3 12  1  0  0  0  0
 12 13  2  0  0  0  0
 13 14  1  0  0  0  0
 14 15  1  0  0  0  0
 15 16  1  0  0  0  0
 16 17  2  0  0  0  0
 17 18  1  0  0  0  0
 18 19  1  0  0  0  0
 19 20  1  0  0  0  0
 20 21  2  0  0  0  0
 20 22  1  0  0  0  0
 22 23  2  0  0  0  0
 22 24  1  0  0  0  0
 16 25  1  0  0  0  0
 25 26  2  0  0  0  0
 26 27  1  0  0  0  0
 27 28  2  0  0  0  0
 28 29  1  0  0  0  0
 29 30  2  0  0  0  0
 30 31  1  0  0  0  0
 31 32  2  0  0  0  0
 32 33  1  0  0  0  0
 33 34  2  0  0  0  0
 34 35  1  0  0  0  0
 35 36  1  0  0  0  0
 36 37  1  0  0  0  0
 34 38  1  0  0  0  0
 38 39  1  0  0  0  0
 38 40  2  0  0  0  0
 30 41  1  0  0  0  0
 41 42  2  0  0  0  0
 42 43  1  0  0  0  0
 43 44  1  0  0  0  0
 44 45  2  0  0  0  0
 45 46  1  0  0  0  0
 46 47  2  0  0  0  0
 47 48  1  0  0  0  0
 48 49  1  0  0  0  0
 49 50  1  0  0  0  0
 47 51  1  0  0  0  0
 51 52  2  0  0  0  0
 51 53  1  0  0  0  0
 43 54  2  0  0  0  0
 54 55  1  0  0  0  0
 42 56  1  0  0  0  0
 56 57  2  0  0  0  0
 57 58  1  0  0  0  0
 57 59  1  0  0  0  0
 59 60  2  0  0  0  0
 60 61  1  0  0  0  0
 61 62  2  0  0  0  0
 62 63  1  0  0  0  0
 63 64  2  0  0  0  0
 64 65  1  0  0  0  0
 65 66  2  0  0  0  0
 66 67  1  0  0  0  0
 67 68  1  0  0  0  0
 68 69  1  0  0  0  0
 66 70  1  0  0  0  0
 70 71  1  0  0  0  0
 70 72  2  0  0  0  0
 62 73  1  0  0  0  0
 73 74  2  0  0  0  0
 74 75  1  0  0  0  0
 75 76  1  0  0  0  0
 76 77  2  0  0  0  0
 77 78  1  0  0  0  0
 78 79  2  0  0  0  0
 79 80  1  0  0  0  0
 80 81  1  0  0  0  0
 81 82  1  0  0  0  0
 79 83  1  0  0  0  0
 83 84  2  0  0  0  0
 83 85  1  0  0  0  0
 75 86  2  0  0  0  0
 86 87  1  0  0  0  0
 74 88  1  0  0  0  0
 88 89  2  0  0  0  0
 89 90  1  0  0  0  0
 89 91  1  0  0  0  0
 91 92  2  0  0  0  0
 92 93  1  0  0  0  0
 93 94  2  0  0  0  0
 94 95  1  0  0  0  0
 95 96  2  0  0  0  0
 96 97  1  0  0  0  0
 97 98  2  0  0  0  0
 98 99  1  0  0  0  0
 99100  1  0  0  0  0
100101  1  0  0  0  0
 98102  1  0  0  0  0
102103  1  0  0  0  0
102104  2  0  0  0  0
 94105  1  0  0  0  0
105106  2  0  0  0  0
106107  1  0  0  0  0
107108  1  0  0  0  0
108109  2  0  0  0  0
109110  1  0  0  0  0
110111  2  0  0  0  0
111112  1  0  0  0  0
112113  1  0  0  0  0
113114  1  0  0  0  0
111115  1  0  0  0  0
115116  2  0  0  0  0
115117  1  0  0  0  0
107118  2  0  0  0  0
118119  1  0  0  0  0
106120  1  0  0  0  0
120121  2  0  0  0  0
121122  1  0  0  0  0
121123  1  0  0  0  0
123124  2  0  0  0  0
124125  1  0  0  0  0
125126  2  0  0  0  0
126127  1  0  0  0  0
127128  2  0  0  0  0
128129  1  0  0  0  0
129130  2  0  0  0  0
130131  1  0  0  0  0
131132  1  0  0  0  0
132133  1  0  0  0  0
130134  1  0  0  0  0
134135  1  0  0  0  0
134136  2  0  0  0  0
126137  1  0  0  0  0
137138  2  0  0  0  0
138139  1  0  0  0  0
139140  1  0  0  0  0
140141  2  0  0  0  0
141142  1  0  0  0  0
142143  2  0  0  0  0
143144  1  0  0  0  0
144145  1  0  0  0  0
145146  1  0  0  0  0
143147  1  0  0  0  0
147148  2  0  0  0  0
147149  1  0  0  0  0
139150  2  0  0  0  0
150151  1  0  0  0  0
138152  1  0  0  0  0
152153  2  0  0  0  0
153154  1  0  0  0  0
  5  1  2  0  0  0  0
 18 14  2  0  0  0  0
 55 27  1  0  0  0  0
 87 59  1  0  0  0  0
119 91  1  0  0  0  0
151123  1  0  0  0  0
 11  4  1  0  0  0  0
 24 17  1  0  0  0  0
 54 29  1  0  0  0  0
 86 61  1  0  0  0  0
118 93  1  0  0  0  0
150125  1  0  0  0  0
 40 31  1  0  0  0  0
 58 41  1  0  0  0  0
 72 63  1  0  0  0  0
 90 73  1  0  0  0  0
104 95  1  0  0  0  0
122105  1  0  0  0  0
136127  1  0  0  0  0
154137  1  0  0  0  0
 52 44  1  0  0  0  0
 84 76  1  0  0  0  0
116108  1  0  0  0  0
148140  1  0  0  0  0
  1155  1  0  0  0  0
 12156  1  0  0  0  0
 13157  1  0  0  0  0
 25158  1  0  0  0  0
 26159  1  0  0  0  0
 28160  1  0  0  0  0
 32161  1  0  0  0  0
 33162  1  0  0  0  0
 36163  1  0  0  0  0
 36164  1  0  0  0  0
 37165  1  0  0  0  0
 37166  1  0  0  0  0
 37167  1  0  0  0  0
 40168  1  0  0  0  0
 45169  1  0  0  0  0
 46170  1  0  0  0  0
 49171  1  0  0  0  0
 49172  1  0  0  0  0
 50173  1  0  0  0  0
 50174  1  0  0  0  0
 50175  1  0  0  0  0
 52176  1  0  0  0  0
 56177  1  0  0  0  0
 60178  1  0  0  0  0
 64179  1  0  0  0  0
 65180  1  0  0  0  0
 68181  1  0  0  0  0
 68182  1  0  0  0  0
 69183  1  0  0  0  0
 69184  1  0  0  0  0
 69185  1  0  0  0  0
 72186  1  0  0  0  0
 77187  1  0  0  0  0
 78188  1  0  0  0  0
 81189  1  0  0  0  0
 81190  1  0  0  0  0
 82191  1  0  0  0  0
 82192  1  0  0  0  0
 82193  1  0  0  0  0
 84194  1  0  0  0  0
 88195  1  0  0  0  0
 92196  1  0  0  0  0
 96197  1  0  0  0  0
 97198  1  0  0  0  0
100199  1  0  0  0  0
100200  1  0  0  0  0
101201  1  0  0  0  0
101202  1  0  0  0  0
101203  1  0  0  0  0
104204  1  0  0  0  0
109205  1  0  0  0  0
110206  1  0  0  0  0
113207  1  0  0  0  0
113208  1  0  0  0  0
114209  1  0  0  0  0
114210  1  0  0  0  0
114211  1  0  0  0  0
116212  1  0  0  0  0
120213  1  0  0  0  0
124214  1  0  0  0  0
128215  1  0  0  0  0
129216  1  0  0  0  0
132217  1  0  0  0  0
132218  1  0  0  0  0
133219  1  0  0  0  0
133220  1  0  0  0  0
133221  1  0  0  0  0
136222  1  0  0  0  0
141223  1  0  0  0  0
142224  1  0  0  0  0
145225  1  0  0  0  0
145226  1  0  0  0  0
146227  1  0  0  0  0
146228  1  0  0  0  0
146229  1  0  0  0  0
148230  1  0  0  0  0
152231  1  0  0  0  0
153232  1  0  0  0  0
M  END
