200

C          5.19880       -5.79650        8.16970
C          5.36490       -4.63760        7.50090
C          4.15820       -4.16340        6.90790
C          3.95510       -2.98810        6.16820
C          5.00240       -1.98950        6.03110
S          5.45210       -1.32620        4.49240
C          6.59650       -0.23950        5.20410
C          7.36240        0.72760        4.37190
C          6.43280        1.76290        3.73680
C          6.61360       -0.39450        6.55800
Cl         7.61360        0.51240        7.61870
C          5.71440       -1.38720        7.03120
Cl         5.49640       -1.70970        8.70340
C          2.68590       -2.78520        5.64040
C          1.60010       -3.65360        5.90510
C          1.79700       -4.81890        6.66230
C          0.70030       -5.73630        6.92790
S         -0.76470       -5.20390        7.69720
C         -1.46420       -6.78580        7.63790
C         -2.80290       -7.05840        8.22930
C         -2.69250       -7.31500        9.73400
C         -0.59940       -7.66460        7.05720
C          0.62640       -7.07270        6.64980
Cl         1.84110       -7.94890        5.81120
Cl        -0.94150       -9.32910        6.81610
C          3.08150       -5.05370        7.13660
S          3.57960       -6.40180        8.11790
C          0.40060       -3.19400        5.30990
C          0.55170       -2.04080        4.60120
S          2.19720       -1.44510        4.64060
C         -0.45860       -1.35900        3.86360
C         -0.33220       -0.26510        3.06290
C         -1.54420        0.11720        2.43450
C         -1.76670        1.17470        1.53620
C         -0.73040        2.14750        1.23790
S          0.86120        1.69210        0.71920
C          1.40690        3.32890        0.66260
C          2.80960        3.65520        0.28740
C          3.71620        3.67450        1.52000
C          0.40920        4.17110        1.05340
Cl         0.58330        5.87410        1.14950
C         -0.80780        3.50760        1.36650
Cl        -2.20150        4.34170        1.90680
C         -3.03260        1.25750        0.96650
C         -4.10980        0.42570        1.35410
C         -3.91470       -0.56340        2.33660
C         -4.99430       -1.44170        2.74440
S         -4.77760       -3.16930        2.77430
C         -6.42020       -3.44530        3.24610
C         -6.93540       -4.82800        3.44550
C         -6.60680       -5.72870        2.25700
C         -7.07940       -2.26000        3.38180
C         -6.27600       -1.12210        3.09920
Cl        -6.85960        0.48280        3.27250
Cl        -8.72610       -2.12290        3.84820
C         -2.61900       -0.72630        2.80690
S         -2.10390       -1.95830        3.91930
C         -5.24340        0.60980        0.52320
C         -5.03180        1.49360       -0.48970
S         -3.45640        2.24320       -0.40250
C         -5.91920        1.76000       -1.59090
O         -7.23950        1.93130       -1.35920
C         -7.83710        2.07830       -2.55310
C         -6.93520        2.00030       -3.56440
C         -5.66340        1.78580       -2.95540
C         -4.41590        1.48040       -3.59450
C         -4.12840        1.71270       -4.89020
C         -2.91640        1.28530       -5.51230
C         -2.48570        1.73370       -6.71150
C         -1.30500        1.27020       -7.36300
O         -0.68650        0.14570       -6.92740
C          0.37020       -0.06890       -7.72890
C          0.47150        0.89400       -8.68010
C         -0.61310        1.78940       -8.45810
C         -0.80920        3.09770       -9.00970
C         -0.04760        3.70250       -9.93500
C         -0.04580        5.15430      -10.07950
C          0.12170        5.93660       -9.00690
C          0.36490        5.32360       -7.70100
C         -0.46850        5.20620       -6.64040
C         -0.05840        4.22450       -5.69300
C         -0.75270        3.74640       -4.56750
C         -1.96930        4.37820       -4.08820
S         -3.28720        4.84470       -5.12310
C         -4.18600        5.54550       -3.82180
C         -5.48430        6.24150       -4.04450
C         -6.67470        5.39940       -3.58710
C         -3.50740        5.39140       -2.65080
Cl        -4.07630        5.94690       -1.13170
C         -2.25180        4.74730       -2.80050
Cl        -1.15480        4.61270       -1.49960
C         -0.19890        2.64680       -3.91220
C          1.05470        2.09160       -4.26050
C          1.79510        2.63930       -5.32090
C          3.11870        2.13930       -5.64360
S          3.56490        1.68180       -7.25930
C          5.17020        1.24810       -6.77580
C          6.17590        0.78490       -7.77090
C          6.85510        1.97580       -8.45150
C          5.33900        1.46300       -5.44050
C          4.17710        1.96200       -4.79450
Cl         4.15700        2.37240       -3.12970
Cl         6.80330        1.16150       -4.59760
C          1.18600        3.65180       -6.04860
S          1.81490        4.35550       -7.50700
C          1.36600        0.94290       -3.48960
C          0.38820        0.60090       -2.60830
S         -0.96080        1.71350       -2.65650
C          0.39710       -0.48460       -1.67340
C         -0.65640       -1.18610       -1.17520
C         -0.28800       -2.15910       -0.20810
C         -1.08700       -3.14650        0.39910
C         -2.44450       -3.41890       -0.03890
S         -3.61080       -2.16100       -0.31930
C         -4.85620       -3.27980       -0.75160
C         -6.22590       -2.80980       -1.09590
C         -6.21120       -1.85850       -2.29140
C         -4.36890       -4.55080       -0.72300
Cl        -5.29010       -5.94240       -1.12110
C         -3.00640       -4.63570       -0.33000
Cl        -2.16810       -6.12870       -0.36500
C         -0.47780       -3.92530        1.38360
C          0.90060       -3.84130        1.69340
C          1.72390       -2.94350        0.99560
C          3.16450       -2.92390        1.17630
S          4.07620       -4.40540        1.08450
C          5.58990       -3.58030        1.21220
C          6.88490       -4.31040        1.13760
C          7.36120       -4.43030       -0.31230
C          5.38470       -2.23830        1.31860
C          4.01580       -1.86180        1.31760
Cl         3.52680       -0.24600        1.58000
Cl         6.65120       -1.09470        1.42320
C          1.10240       -2.11680        0.06560
S          1.91890       -0.99410       -0.98160
C          1.26530       -4.74490        2.73290
C          0.21780       -5.45520        3.19890
S         -1.27200       -5.08530        2.41010
H          5.93860       -6.36160        8.70240
H          6.30770       -4.13040        7.41150
H          8.09820        1.22350        5.00670
H          7.89230        0.19080        3.58190
H          7.00820        2.46290        3.13730
H          5.89930        2.31720        4.50510
H          5.70610        1.27020        3.09620
H         -3.23050       -7.93460        7.73870
H         -3.45740       -6.20300        8.05370
H         -2.26760       -6.44800       10.23420
H         -3.67570       -7.51270       10.15240
H         -2.05350       -8.17340        9.92420
H         -0.54450       -3.69900        5.39390
H          0.60760        0.23550        2.91680
H          3.17370        2.90710       -0.41890
H          2.82740        4.63340       -0.19760
H          3.70400        2.70480        2.01150
H          3.37740        4.42750        2.22700
H          4.73730        3.90320        1.22770
H         -6.48900       -5.25130        4.35000
H         -8.01550       -4.77510        3.59370
H         -5.52970       -5.79430        2.12060
H         -6.99840       -6.72840        2.42410
H         -7.04640       -5.33100        1.34580
H         -6.15570        0.05200        0.61960
H         -8.89790        2.23340       -2.55090
H         -7.14140        2.04830       -4.61370
H         -3.67190        1.00740       -2.96730
H         -4.82960        2.25510       -5.51030
H         -2.31650        0.56060       -4.97890
H         -3.04220        2.50110       -7.23080
H          0.97170       -0.93150       -7.51970
H          1.22740        0.97310       -9.43290
H         -1.57510        3.68430       -8.52010
H          0.66260        3.14660      -10.53200
H         -0.13410        5.58230      -11.06870
H          0.11400        7.01500       -9.07760
H         -1.39990        5.73820       -6.57910
H         -5.47230        7.17790       -3.48070
H         -5.58580        6.47680       -5.10510
H         -7.59880        5.95380       -3.72740
H         -6.72870        4.47780       -4.15900
H         -6.57640        5.14680       -2.53490
H          6.92540        0.17980       -7.25760
H          5.68290        0.16880       -8.52460
H          7.58340        1.62560       -9.17790
H          6.11630        2.58870       -8.96220
H          7.36550        2.58980       -7.71400
H          2.26140        0.36150       -3.61290
H         -1.66680       -1.00830       -1.49400
H         -6.65700       -2.29770       -0.23080
H         -6.84320       -3.68190       -1.31770
H         -7.21680       -1.50630       -2.50570
H         -5.57960       -0.99920       -2.08030
H         -5.82480       -2.36330       -3.17330
H          7.62920       -3.76600        1.72230
H          6.76330       -5.30690        1.56500
H          6.63050       -4.97520       -0.90530
H          7.49550       -3.44330       -0.74720
H          8.30870       -4.96060       -0.35130
H          2.26420       -4.84030        3.11720
H          0.21920       -6.19700        3.97300
