227

C          5.74810        6.99700      -16.70470
C          6.78290        6.99500      -15.84050
C          6.55310        6.16480      -14.70440
C          7.41050        5.91450      -13.62070
C          8.76150        6.45060      -13.58650
S          9.34570        7.36920      -12.23200
C         10.90590        7.57990      -12.94940
C         11.96130        8.39010      -12.28130
C         11.83520        9.86830      -12.65810
C         10.95440        6.97150      -14.16820
Cl        12.34160        6.96240      -15.17850
C          9.74200        6.32650      -14.53140
Cl         9.57350        5.42080      -15.97980
C          6.91430        5.12310      -12.59350
C          5.62530        4.53900      -12.63060
C          4.79170        4.73490      -13.74430
C          3.49220        4.08990      -13.81940
S          2.04400        4.99630      -14.14140
C          1.04240        3.59200      -14.01130
C         -0.42660        3.66630      -14.24150
C         -0.75230        3.50510      -15.72840
C          1.80180        2.49040      -13.75040
C          3.19000        2.76770      -13.63690
Cl         4.35580        1.53310      -13.38080
Cl         1.16010        0.91090      -13.55580
C          5.27080        5.56820      -14.74740
S          4.42280        6.00380      -16.20430
C          5.34650        3.80580      -11.45200
C          6.37940        3.78680      -10.56380
S          7.76270        4.69940      -11.13130
C          6.39730        3.12140       -9.30330
C          7.34130        3.17120       -8.32150
C          7.01740        2.38530       -7.18630
C          7.72350        2.27380       -5.97340
C          8.98540        2.96620       -5.76950
S         10.31460        2.75320       -6.87140
C         11.34370        3.80190       -5.95800
C         12.75970        4.03330       -6.35500
C         13.67300        2.95450       -5.76760
C         10.68350        4.27720       -4.86480
Cl        11.37820        5.35150       -3.72180
C          9.34620        3.80920       -4.75540
Cl         8.28780        4.33680       -3.51560
C          7.16170        1.47390       -4.98570
C          5.94130        0.77910       -5.17440
C          5.21050        0.92390       -6.36470
C          3.91370        0.29130       -6.53170
S          3.54200       -0.64120       -7.95140
C          1.94390       -1.00240       -7.39390
C          1.00110       -1.78920       -8.23500
C          0.45330       -0.93600       -9.38140
C          1.72200       -0.41920       -6.18210
C          2.83590        0.31140       -5.68840
Cl         2.76060        1.19830       -4.21880
Cl         0.25140       -0.54450       -5.30790
C          5.77800        1.71880       -7.34920
S          5.05000        2.08260       -8.88420
C          5.60410       -0.01090       -4.05570
C          6.47780        0.11110       -3.01360
S          7.82900        1.14790       -3.40790
C          6.23890       -0.44850       -1.72100
C          4.99780       -0.83070       -1.30090
C          4.97510       -1.34370        0.01190
C          3.84760       -1.77400        0.73060
C          2.55850       -1.90320        0.07620
S          1.10060       -1.25860        0.77110
C          0.13220       -1.80420       -0.55420
C         -1.34440       -1.61920       -0.56200
C         -2.03670       -2.79060        0.13920
C          0.90380       -2.45750       -1.46870
Cl         0.29460       -3.14860       -2.91560
C          2.27790       -2.51290       -1.11820
Cl         3.42620       -3.35830       -2.07600
C          4.04270       -2.06360        2.07180
C          5.31530       -2.02740        2.69910
C          6.45440       -1.67260        1.94900
C          7.77980       -1.64400        2.54380
S          8.10190       -0.74970        4.00030
C          9.78130       -1.17070        3.98380
C         10.69460       -0.72760        5.07280
C         10.47060       -1.54950        6.34400
C         10.05760       -1.96520        2.91220
C          8.92910       -2.22920        2.08960
Cl         9.01290       -3.25640        0.72050
Cl        11.61420       -2.59750        2.56310
C          6.25290       -1.31540        0.61940
S          7.45180       -0.69000       -0.48480
C          5.23520       -2.39160        4.06860
C          3.96040       -2.66050        4.47310
S          2.78930       -2.52450        3.17910
C          3.41860       -2.98280        5.74760
O          2.07190       -3.00930        5.82640
C          1.71660       -3.30500        7.09360
C          2.85570       -3.48490        7.86020
C          3.95270       -3.27300        7.00140
O          5.27860       -3.31840        7.25080
C          5.65180       -3.63130        8.57500
C          0.31210       -3.31160        7.31680
C         -0.38990       -3.63370        8.42240
C         -1.81850       -3.53400        8.41130
C         -2.57680       -2.77520        7.56490
C         -3.96780       -2.97120        7.70640
C         -5.00020       -2.35390        6.97870
C         -4.71230       -1.42550        5.89860
S         -5.45030        0.14940        5.85570
C         -4.62360        0.58460        4.39930
C         -4.86070        1.89870        3.74120
C         -6.15900        1.87450        2.93120
C         -3.83730       -0.44470        3.97610
Cl        -2.85980       -0.38290        2.56960
C         -3.88270       -1.58520        4.82260
Cl        -3.03720       -3.03360        4.45030
C         -6.29970       -2.67350        7.34340
C         -6.60900       -3.59630        8.37200
C         -5.57380       -4.23200        9.08330
C         -5.87010       -5.19350       10.13260
S         -6.92620       -4.78540       11.45320
C         -6.75550       -6.34770       12.17820
C         -7.51160       -6.70930       13.40860
C         -8.97340       -7.01980       13.07740
C         -5.93010       -7.12880       11.42660
C         -5.42110       -6.47730       10.27020
Cl        -4.42280       -7.27900        9.13160
Cl        -5.52690       -8.75040       11.81680
C         -4.27120       -3.89970        8.73430
S         -2.81640       -4.48990        9.48900
C         -8.00700       -3.79220        8.49710
C         -8.74150       -3.05600        7.61620
S         -7.73770       -2.06870        6.57320
C        -10.15710       -3.03190        7.45370
C        -10.86590       -2.31890        6.53410
C        -12.26380       -2.53960        6.59970
C        -13.27220       -1.95470        5.81550
C        -12.95320       -1.00060        4.76650
S        -11.79250       -1.37650        3.52630
C        -12.00150        0.15720        2.75250
C        -11.18750        0.53470        1.56450
C         -9.78240        0.97270        1.98540
C        -12.91530        0.90690        3.43020
Cl       -13.38030        2.49420        2.97340
C        -13.46240        0.25260        4.56730
Cl       -14.57670        1.02040        5.61810
C        -14.58030       -2.34500        6.07940
C        -14.91850       -3.26160        7.10400
C        -13.91450       -3.80320        7.92240
C        -14.23370       -4.68400        9.03350
S        -13.45380       -6.22430        9.23180
C        -14.31810       -6.56090       10.69270
C        -14.05880       -7.80360       11.47040
C        -12.81880       -7.64130       12.35320
C        -15.14970       -5.52600       11.00140
C        -15.10950       -4.46250       10.06020
Cl       -16.01540       -3.01810       10.25860
Cl       -16.16020       -5.48930       12.38810
C        -12.60410       -3.44860        7.63030
S        -11.18950       -4.00690        8.47960
C        -16.31380       -3.55190        7.10840
C        -16.98910       -2.88740        6.14860
S        -15.98920       -1.86510        5.17790
H          5.66430        7.53240      -17.63020
H          7.68000        7.56830      -15.98330
H         12.93920        8.01710      -12.59140
H         11.87010        8.28100      -11.19950
H         11.93570        9.99240      -13.73330
H         12.61260       10.44670      -12.16650
H         10.86570       10.25400      -12.35200
H         -0.80020        4.62920      -13.88960
H         -0.91230        2.87130      -13.67240
H         -0.26960        4.28920      -16.30690
H         -1.82600        3.56550      -15.88420
H         -0.40120        2.54130      -16.08810
H          4.40720        3.32290      -11.25370
H          8.23260        3.76610       -8.40740
H         13.07050        5.01370       -5.98910
H         12.83720        4.02310       -7.44350
H         13.37510        1.97200       -6.12600
H         13.61330        2.96110       -4.68230
H         14.70310        3.13630       -6.06170
H          1.51880       -2.65760       -8.64730
H          0.17960       -2.13810       -7.60690
H         -0.23080       -1.52170       -9.98950
H          1.26700       -0.58400      -10.01110
H         -0.07990       -0.07350       -8.98890
H          4.75400       -0.66490       -4.03210
H          4.11240       -0.69100       -1.89040
H         -1.59630       -0.68850       -0.05140
H         -1.68800       -1.55590       -1.59640
H         -3.11290       -2.64000        0.14360
H         -1.81540       -3.72240       -0.37530
H         -1.69120       -2.87080        1.16710
H         11.72460       -0.84650        4.73290
H         10.51740        0.32780        5.28930
H         11.14290       -1.21450        7.12930
H         10.65850       -2.60250        6.14960
H          9.44510       -1.43630        6.68820
H          6.07360       -2.44090        4.73720
H          2.87900       -3.72850        8.90220
H          5.28970       -4.62210        8.86580
H          5.27250       -2.88530        9.28020
H          6.73990       -3.62390        8.58800
H         -0.23260       -3.01860        6.42900
H          0.08990       -4.01110        9.31280
H         -2.15500       -2.06540        6.87950
H         -4.92270        2.68000        4.50070
H         -4.01890        2.11700        3.08200
H         -6.31860        2.83670        2.45250
H         -6.11000        1.10670        2.16330
H         -7.00410        1.66220        3.58130
H         -7.04200       -7.58360       13.86210
H         -7.46990       -5.88140       14.11900
H         -9.45080       -6.15090       12.63050
H         -9.51320       -7.28830       13.98130
H         -9.03230       -7.84930       12.37700
H         -8.46010       -4.46380        9.20350
H        -10.39390       -1.65760        5.83050
H        -11.68790        1.35260        1.04380
H        -11.11300       -0.31840        0.88760
H         -9.19900        1.24930        1.11160
H         -9.83940        1.83000        2.65130
H         -9.27440        0.16210        2.50270
H        -14.92920       -8.01580       12.09350
H        -13.90740       -8.63750       10.78290
H        -12.95870       -6.82030       13.05160
H        -12.64010       -8.55260       12.91730
H        -11.94550       -7.43140       11.74050
H        -16.77330       -4.24260        7.79090
H        -18.03930       -2.92750        5.93490
