224

C        -11.43710       -2.53660       -0.48340
C        -10.89650       -3.77010       -0.55470
C         -9.68920       -3.80220       -1.31220
C         -8.86980       -4.90610       -1.60040
C         -9.14710       -6.22260       -1.04890
S         -9.34090       -6.44940        0.66490
C         -9.55480       -8.15860        0.49550
C         -9.83050       -9.01960        1.67850
C        -11.30250       -8.93480        2.08850
C         -9.48950       -8.51440       -0.81820
Cl        -9.66850      -10.12430       -1.38440
C         -9.24980       -7.42200       -1.69600
Cl        -9.18270       -7.60750       -3.39820
C         -7.75450       -4.67400       -2.39640
C         -7.43430       -3.39280       -2.90900
C         -8.24660       -2.28650       -2.61170
C         -7.88760       -0.95580       -3.07430
S         -7.68690        0.35540       -1.94890
C         -7.20960        1.45530       -3.19530
C         -6.80180        2.85250       -2.88030
C         -5.30070        2.93420       -2.59140
C         -7.21270        0.82970       -4.40680
C         -7.59800       -0.53620       -4.34300
Cl        -7.74750       -1.52210       -5.74060
Cl        -6.79340        1.60040       -5.88120
C         -9.35810       -2.52130       -1.81310
S        -10.52900       -1.32940       -1.32510
C         -6.20810       -3.40060       -3.61570
C         -5.59830       -4.61880       -3.63980
S         -6.52380       -5.84170       -2.79780
C         -4.30300       -4.88200       -4.17920
C         -3.42890       -5.87920       -3.86260
C         -2.13280       -5.68450       -4.40450
C         -0.96720       -6.44130       -4.18210
C         -0.96590       -7.66000       -3.39240
S         -1.68310       -7.74560       -1.81020
C         -1.20360       -9.39290       -1.59220
C         -1.48190      -10.12020       -0.32350
C         -0.33160       -9.94160        0.67060
C         -0.52410       -9.83650       -2.68730
Cl         0.10470      -11.42510       -2.84150
C         -0.38640       -8.85930       -3.70830
Cl         0.36090       -9.20280       -5.21130
C          0.22150       -5.92970       -4.69320
C          0.27420       -4.76450       -5.49450
C         -0.90170       -4.05350       -5.78970
C         -0.85480       -2.85410       -6.61150
S         -0.19940       -2.91800       -8.22220
C         -0.47400       -1.23020       -8.48730
C         -0.15820       -0.58970       -9.79370
C         -1.34000       -0.70720      -10.75930
C         -1.04450       -0.66660       -7.38550
C         -1.25630       -1.58080       -6.31810
Cl        -1.86660       -1.08070       -4.79720
Cl        -1.46170        0.99340       -7.26870
C         -2.07020       -4.51080       -5.20030
S         -3.60660       -3.70530       -5.27110
C          1.59980       -4.33000       -5.71930
C          2.53730       -5.08280       -5.06860
S          1.82400       -6.46760       -4.27000
C          3.86820       -4.65320       -4.77490
C          4.43630       -3.48320       -5.19620
C          5.51880       -3.05990       -4.39290
C          6.14980       -1.80190       -4.42540
C          5.91260       -0.88210       -5.52150
S          5.45510        0.77400       -5.24520
C          5.31990        1.10130       -6.93950
C          4.96770        2.46380       -7.42510
C          6.13460        3.43370       -7.22880
C          5.62670       -0.01160       -7.66440
Cl         5.61460       -0.07570       -9.37980
C          5.95520       -1.13950       -6.86540
Cl         6.42970       -2.64300       -7.54410
C          6.87510       -1.44890       -3.29660
C          7.09270       -2.33010       -2.20960
C          6.59530       -3.64570       -2.25770
C          6.85690       -4.56800       -1.16230
S          8.49370       -4.99800       -0.76070
C          7.98790       -6.02800        0.53490
C          8.97390       -6.81450        1.32580
C          9.33020       -8.12050        0.61170
C          6.62900       -6.02640        0.63640
C          5.98350       -5.19400       -0.31870
Cl         4.28700       -4.94940       -0.32350
Cl         5.75570       -6.92460        1.80890
C          5.77640       -3.96510       -3.33150
S          4.77230       -5.38310       -3.46420
C          7.59780       -1.65380       -1.06950
C          7.72950       -0.30710       -1.25830
S          7.43370        0.15470       -2.92520
C          7.70710        0.72500       -0.26950
C          7.77600        0.62940        1.09160
C          7.24050        1.75890        1.76180
C          7.03390        1.93370        3.14590
C          7.66720        1.05020        4.10440
S          6.79580        0.35230        5.43730
C          8.19480       -0.48720        6.01460
C          8.13810       -1.30260        7.25850
C          8.11640       -0.40440        8.49740
C          9.26980       -0.22300        5.21860
Cl        10.84020       -0.86450        5.48090
C          8.97440        0.64080        4.13100
Cl        10.17840        1.17310        3.03000
C          6.16160        2.94760        3.52660
C          5.56860        3.83570        2.59260
C          5.92950        3.78210        1.23270
C          5.41300        4.73770        0.27180
S          4.72910        4.21910       -1.24130
C          4.40880        5.84370       -1.74470
C          3.78860        6.12200       -3.07000
C          4.51920        5.39470       -4.19780
C          4.81150        6.72490       -0.78540
C          5.37550        6.10280        0.36110
Cl         6.01900        7.00260        1.67320
Cl         4.66790        8.43040       -0.92270
C          6.73120        2.71720        0.85070
S          7.09760        2.28510       -0.79040
C          4.55860        4.62450        3.18190
C          4.40710        4.39100        4.52160
S          5.55920        3.22940        5.14200
C          3.38830        4.88830        5.36790
S          1.97430        5.67600        4.77990
C          1.24310        5.78270        6.35900
C          2.08820        5.24290        7.32590
C          3.31050        4.72800        6.75130
N          4.27720        4.14020        7.46840
C          4.06480        4.04480        8.74960
N          2.96290        4.43150        9.39810
C          1.98540        5.00240        8.72620
C          0.85140        5.28800        9.53760
N         -0.00710        5.44980       10.27900
C         -0.06550        6.34900        6.41640
C         -0.98390        6.30590        5.40190
C         -2.19950        6.96070        5.70870
C         -3.35940        7.07670        4.92120
C         -3.44920        6.47400        3.60060
S         -2.28820        6.81670        2.35110
C         -3.08780        5.78680        1.21340
C         -2.60610        5.64400       -0.18850
C         -3.33970        6.61220       -1.11990
C         -4.18990        5.22130        1.78170
Cl        -5.23310        4.13490        0.96230
C         -4.39620        5.60370        3.13400
Cl        -5.66100        4.94920        4.08740
C         -4.42490        7.77870        5.47260
C         -4.40170        8.32260        6.78160
C         -3.25580        8.18170        7.57620
C         -3.17500        8.68220        8.93960
S         -2.73460        7.60860       10.23340
C         -2.79370        8.87790       11.40520
C         -2.44670        8.60510       12.82670
C         -0.99690        8.13440       12.95470
C         -3.13780       10.05750       10.81390
C         -3.36120        9.94950        9.41440
Cl        -3.74150       11.30130        8.42700
Cl        -3.29100       11.54840       11.65220
C         -2.17920        7.51110        7.01190
S         -0.65150        7.24530        7.79910
C         -5.63410        8.95820        7.10890
C         -6.51920        8.93610        6.09160
S         -5.93500        8.12690        4.68030
H        -12.33710       -2.24120        0.01940
H        -11.33280       -4.63850       -0.09700
H         -9.20380       -8.70020        2.51340
H         -9.57840      -10.05070        1.42530
H        -11.56300       -7.91130        2.34780
H        -11.48710       -9.57070        2.95000
H        -11.94100       -9.26090        1.27140
H         -7.04360        3.49000       -3.73310
H         -7.35770        3.20390       -2.00970
H         -4.73100        2.59040       -3.45110
H         -5.02010        3.96100       -2.37320
H         -5.04770        2.31400       -1.73480
H         -5.76550       -2.52590       -4.05560
H         -3.69540       -6.69350       -3.21400
H         -2.40640       -9.74190        0.11570
H         -1.60750      -11.18140       -0.54760
H         -0.54640      -10.47940        1.59010
H          0.59330      -10.32690        0.24900
H         -0.19430       -8.88870        0.90500
H          0.06920        0.46420       -9.62150
H          0.71830       -1.07090      -10.23070
H         -1.09640       -0.23370      -11.70640
H         -1.57610       -1.75280      -10.94180
H         -2.21760       -0.22060      -10.34140
H          1.83490       -3.43300       -6.26060
H          4.03170       -2.88720       -5.99220
H          4.09840        2.83070       -6.87530
H          4.71090        2.40120       -8.48370
H          5.86040        4.42440       -7.58050
H          7.00410        3.09490       -7.78620
H          6.39810        3.49570       -6.17580
H          9.87880       -6.22170        1.47050
H          8.54030       -7.03780        2.30230
H          9.76420       -7.91120       -0.36310
H         10.04910       -8.68350        1.20060
H          8.44020       -8.72880        0.47270
H          7.73590       -2.13330       -0.11770
H          8.12040       -0.25060        1.60280
H          7.23910       -1.92200        7.24640
H          9.01220       -1.95510        7.28960
H          8.07360       -1.01120        9.39780
H          9.01240        0.21020        8.53350
H          7.24750        0.24890        8.47240
H          2.74330        5.80000       -3.05420
H          3.80830        7.19990       -3.23920
H          5.55950        5.70740       -4.23780
H          4.05120        5.62070       -5.15210
H          4.48740        4.31930       -4.03660
H          3.93120        5.30510        2.63510
H          4.83780        3.59340        9.35530
H         -0.80130        5.79130        4.47570
H         -2.78540        4.61820       -0.51820
H         -1.53390        5.84200       -0.22510
H         -2.99370        6.48110       -2.14170
H         -4.41050        6.42820       -1.08620
H         -3.15570        7.64030       -0.81800
H         -2.60020        9.51760       13.40520
H         -3.11040        7.83110       13.21990
H         -0.76190        7.92990       13.99570
H         -0.84050        7.22810       12.37420
H         -0.31760        8.90050       12.58890
H         -5.83290        9.40510        8.06500
H         -7.51000        9.34620        6.07160
