229

C          5.48360       -6.67030      -13.12490
C          4.36790       -6.05630      -12.68110
C          4.59670       -5.26800      -11.51590
C          3.66240       -4.53990      -10.76160
C          2.28280       -4.39820      -11.19620
S          0.95060       -4.75450      -10.13830
C         -0.21890       -4.32290      -11.33810
C         -1.67830       -4.45480      -11.07480
C         -2.15630       -5.88500      -11.33690
C          0.40180       -3.93260      -12.48730
Cl        -0.42940       -3.42770      -13.90110
C          1.81990       -3.96870      -12.40940
Cl         2.82850       -3.43930      -13.69340
C          4.11920       -3.95620       -9.58690
C          5.47040       -4.02440       -9.17070
C          6.41570       -4.71530       -9.94720
C          7.80550       -4.79570       -9.53000
S          8.22750       -5.34280       -7.93300
C          9.92140       -5.13550       -8.22130
C         10.91510       -5.39680       -7.14380
C         10.83450       -4.32940       -6.04970
C         10.13120       -4.67250       -9.48540
C          8.93590       -4.48530      -10.23300
Cl         8.93870       -3.84300      -11.82110
Cl        11.68100       -4.33520      -10.14020
C          5.94970       -5.33260      -11.10210
S          6.88530       -6.33830      -12.16990
C          5.68530       -3.31580       -7.96350
C          4.55560       -2.74960       -7.45510
S          3.15380       -3.03600       -8.46590
C          4.44020       -2.03020       -6.23030
C          3.31200       -1.55180       -5.63520
C          3.55630       -0.93210       -4.38500
C          2.62480       -0.35880       -3.50540
C          1.19490       -0.38630       -3.77450
S          0.48810        0.32460       -5.19300
C         -1.11140       -0.15210       -4.73380
C         -2.28510        0.14760       -5.59880
C         -2.74300       -1.09800       -6.36040
C         -1.08060       -0.83600       -3.55490
Cl        -2.46080       -1.49550       -2.78070
C          0.22250       -0.96340       -3.00550
Cl         0.52400       -1.82980       -1.55790
C          3.11950        0.16690       -2.32120
C          4.48440        0.09760       -1.94560
C          5.42050       -0.45790       -2.83580
C          6.83950       -0.48530       -2.52840
S          7.78230       -1.93460       -2.71670
C          9.24070       -1.14490       -2.22520
C         10.52310       -1.89360       -2.11940
C         10.62470       -2.62170       -0.77710
C          8.99490        0.16250       -1.92740
C          7.63730        0.54200       -2.10330
Cl         7.10200        2.15890       -1.88930
Cl        10.19850        1.26860       -1.40510
C          4.92740       -0.96600       -4.03180
S          5.87790       -1.72860       -5.27370
C          4.69110        0.58760       -0.63050
C          3.56010        1.08300       -0.05470
S          2.16450        0.96290       -1.10950
C          3.34930        1.56950        1.26970
C          2.22120        2.18480        1.72180
C          2.20830        2.38080        3.12170
C          1.16130        2.91250        3.88780
C          0.02730        3.54920        3.22720
S          0.29180        5.01670        2.33250
C         -1.36400        5.10700        1.84440
C         -1.88900        6.20910        0.98980
C         -0.94180        7.39740        0.90900
C         -2.05880        4.04600        2.34440
Cl        -3.71300        3.79560        1.98570
C         -1.27980        3.16710        3.14570
Cl        -1.91280        1.75930        3.89690
C          1.28740        2.82230        5.26290
C          2.45490        2.32590        5.89730
C          3.55470        1.90740        5.12330
C          4.80240        1.51450        5.75180
S          5.63170        0.05220        5.30990
C          6.91250        0.34370        6.43570
C          8.07400       -0.58180        6.53460
C          9.08690       -0.30170        5.42170
C          6.70360        1.51620        7.09940
C          5.50730        2.17980        6.71900
Cl         5.06990        3.71280        7.35860
Cl         7.76630        2.14840        8.29010
C          3.38010        1.88810        3.74380
S          4.50060        1.26970        2.55820
C          2.30770        2.29240        7.30780
C          1.09830        2.75450        7.73610
S          0.06880        3.26750        6.41350
C          0.57300        2.86100        9.05970
S         -1.15570        2.77850        9.26930
C          1.19310        3.09030       10.27020
C          2.57030        3.28190       10.66800
C          2.73470        3.52990       11.96450
S          1.14600        3.55600       12.84860
N          0.90130        2.35700       13.75620
O          0.90730        4.89970       13.33310
C          0.26800        3.21610       11.33130
C         -1.04680        3.08940       10.98720
C         -2.17370        3.20060       11.86590
C         -3.45850        2.99520       11.54760
C         -3.91860        2.59000       10.22360
C         -4.23440        1.33660        9.82150
C         -4.54950        1.24170        8.43670
C         -4.85220        0.08730        7.70010
C         -4.95480       -1.21660        8.33840
S         -6.09170       -1.50960        9.61990
C         -5.61810       -3.16780        9.76650
C         -6.29420       -4.08470       10.72500
C         -7.52110       -4.73660       10.08260
C         -4.63860       -3.46130        8.86570
Cl        -3.91270       -5.00820        8.71440
C         -4.25670       -2.35690        8.05710
Cl        -2.98870       -2.44760        6.90730
C         -5.02950        0.24000        6.33120
C         -4.89900        1.49090        5.67820
C         -4.61040        2.65080        6.41900
C         -4.39940        3.92820        5.75750
S         -2.91840        4.80320        6.01560
C         -3.35630        6.03440        4.88150
C         -2.44860        7.18580        4.62180
C         -2.34060        8.09260        5.84830
C         -4.58900        5.78090        4.35980
C         -5.18290        4.58550        4.85060
Cl        -6.75610        4.08200        4.38290
Cl        -5.35910        6.77350        3.19020
C         -4.44590        2.49400        7.78880
S         -4.06740        3.76150        8.92310
C         -5.03780        1.36440        4.27640
C         -5.28940        0.08980        3.86140
S         -5.39240       -1.03170        5.20010
C         -5.42510       -0.33730        2.50420
C         -5.12590        0.40220        1.39840
C         -5.38880       -0.26890        0.18100
C         -5.18830        0.20890       -1.12290
C         -4.62280        1.52880       -1.36220
S         -3.12340        1.70870       -2.22100
C         -3.15440        3.43280       -2.06950
C         -2.05640        4.27100       -2.62960
C         -1.59660        3.77180       -3.99640
C         -4.26810        3.82710       -1.39060
Cl        -4.67620        5.46320       -1.06720
C         -5.09740        2.74900       -0.97710
Cl        -6.56840        2.98030       -0.12190
C         -5.53670       -0.63930       -2.16350
C         -6.02030       -1.95200       -1.95780
C         -6.16110       -2.45130       -0.65280
C         -6.55220       -3.83120       -0.41840
S         -7.86800       -4.25490        0.63290
C         -7.63460       -5.94900        0.36720
C         -8.53730       -6.95940        0.98400
C         -9.77960       -7.18510        0.11900
C         -6.59570       -6.15690       -0.49060
C         -5.97580       -4.95900       -0.93500
Cl        -4.59200       -4.95120       -1.95110
Cl        -6.06340       -7.71020       -0.99030
C         -5.88170       -1.57950        0.39220
S         -6.01470       -1.93470        2.09190
C         -6.34550       -2.58850       -3.19200
C         -6.11720       -1.80310       -4.26350
S         -5.50110       -0.23860       -3.85680
H          5.58480       -7.31720      -13.97430
H          3.40440       -6.16550      -13.14310
H         -1.88370       -4.18830      -10.03670
H         -2.21520       -3.76430      -11.72780
H         -1.63050       -6.58240      -10.68930
H         -3.22250       -5.96350      -11.14250
H         -1.96960       -6.16140      -12.37130
H         10.72450       -6.37780       -6.70310
H         11.91270       -5.40130       -7.58540
H         11.57120       -4.53380       -5.27720
H         11.03120       -3.34490       -6.46720
H          9.84450       -4.32450       -5.59900
H          6.64010       -3.22810       -7.47830
H          2.33580       -1.64970       -6.07460
H         -3.10310        0.50470       -4.97000
H         -2.01710        0.93350       -6.30580
H         -3.01850       -1.88430       -5.66300
H         -3.60660       -0.85770       -6.97440
H         -1.94690       -1.46540       -7.00370
H         11.34930       -1.18690       -2.21590
H         10.58490       -2.61910       -2.93250
H         10.57990       -1.90900        0.04240
H          9.80550       -3.32840       -0.66920
H         11.56460       -3.16340       -0.71650
H          5.63500        0.55450       -0.11750
H          1.40010        2.44600        1.07830
H         -2.07320        5.81880       -0.01600
H         -2.85710        6.52340        1.38970
H          0.01280        7.09490        0.48440
H         -1.37050        8.17320        0.28050
H         -0.76070        7.81200        1.89750
H          7.72480       -1.61290        6.45530
H          8.54930       -0.44620        7.50750
H          8.62160       -0.43330        4.44770
H          9.92870       -0.98380        5.50310
H          9.45610        0.71810        5.49570
H          3.04510        1.88110        7.97130
H          3.37020        3.23410        9.94540
H          3.65450        3.70810       12.48520
H          1.09660        2.51000       14.72970
H         -1.90290        3.46510       12.87930
H         -4.21780        3.09890       12.31140
H         -4.20300        0.48730       10.47970
H         -6.60070       -3.52330       11.60900
H         -5.58680       -4.85900       11.02810
H         -8.23490       -3.97630        9.77490
H         -8.00410       -5.40310       10.79200
H         -7.22690       -5.31120        9.20820
H         -2.83970        7.75250        3.77530
H         -1.45490        6.81050        4.36440
H         -1.67000        8.92260        5.64210
H         -3.31720        8.49080        6.11130
H         -1.95440        7.53210        6.69630
H         -4.94600        2.18900        3.59840
H         -4.71760        1.39310        1.44390
H         -1.20450        4.25510       -1.94140
H         -2.41310        5.30090       -2.70250
H         -0.81280        4.41540       -4.38660
H         -2.42700        3.76830       -4.69780
H         -1.20700        2.75940       -3.91610
H         -8.84080       -6.61610        1.97430
H         -7.99100       -7.89850        1.09010
H        -10.42700       -7.92500        0.58160
H        -10.33420       -6.25650        0.00630
H         -9.49230       -7.54110       -0.86710
H         -6.74780       -3.58240       -3.25750
H         -6.27860       -2.03540       -5.29800
