302

C         -2.62160       -8.88400       11.94130
C         -1.82850       -7.90420       11.46310
C         -2.22460       -7.45300       10.16920
C         -1.63160       -6.45990        9.37790
C         -0.39170       -5.77330        9.76320
C          0.74900       -6.49670       10.10820
C          1.93520       -5.84870       10.37730
C          2.03190       -4.45790       10.33350
S          3.60610       -3.75380       10.72330
C          3.73880       -2.27480        9.65150
C          3.56860       -2.61140        8.18430
C          0.87310       -3.74880       10.03370
F          0.86850       -2.39680       10.02320
C         -0.31420       -4.38550        9.73330
C         -2.24630       -6.18210        8.16690
C         -3.37950       -6.88260        7.68770
C         -3.95810       -7.89450        8.46930
C         -5.10470       -8.66590        7.97560
C         -5.06780       -9.25750        6.71550
C         -6.14420       -9.97220        6.22860
C         -7.30520      -10.11020        6.98070
S         -8.74750      -10.98650        6.47430
C         -8.56530      -11.12620        4.66200
C         -8.68150       -9.78420        3.96430
C         -7.31930       -9.53210        8.25130
C         -6.24940       -8.82540        8.75280
F         -8.42320       -9.65760        9.01380
C         -3.37720       -8.13420        9.70760
S         -3.90280       -9.32850       10.86630
C         -3.78430       -6.41900        6.40730
C         -2.99410       -5.42830        5.91180
S         -1.70120       -4.99400        7.01520
C         -3.06470       -4.76720        4.65090
C         -2.31170       -3.70320        4.25740
C         -2.52150       -3.31560        2.91080
C         -1.89090       -2.28000        2.19590
C         -0.90030       -1.41110        2.84260
C          0.07370       -1.92620        3.69170
C          0.92430       -1.09700        4.39810
C          0.83820        0.28400        4.25840
O          1.60130        1.18330        4.92190
C          2.56670        0.71980        5.84480
C          3.25250        1.93670        6.44430
C         -0.10730        0.80790        3.37420
C         -0.95840       -0.02440        2.68720
C         -2.34050       -2.08600        0.89560
C         -3.42030       -2.80290        0.32140
C         -4.02300       -3.85320        1.02920
C         -5.12580       -4.63920        0.46030
C         -6.28200       -4.01910       -0.01120
C         -7.30320       -4.76300       -0.55770
C         -7.20130       -6.15330       -0.65540
O         -8.27160       -6.77780       -1.21420
C         -8.20450       -8.15780       -1.51210
C         -7.33920       -8.45070       -2.73450
C         -6.05770       -6.77750       -0.16720
C         -5.03970       -6.02360        0.38710
C         -3.52790       -4.10360        2.29850
S         -4.13080       -5.33450        3.38160
C         -3.77790       -2.29910       -0.96050
C         -2.98450       -1.28300       -1.38430
S         -1.70720       -0.90950       -0.22790
C         -3.18830       -0.30050       -2.41310
C         -2.24420        0.44090       -3.04780
C         -2.72430        1.69300       -3.51770
C         -1.91470        2.75650       -3.95660
C         -0.53480        2.49080       -4.38330
C         -0.28740        1.51480       -5.35040
C          0.99520        1.26410       -5.78950
C          2.08680        1.95620       -5.26670
S          3.69470        1.52680       -5.86980
C          4.54420        3.13960       -6.11890
C          6.04300        2.91250       -6.13610
C          1.83020        2.87260       -4.25180
F          2.84690        3.50870       -3.62740
C          0.54980        3.16000       -3.82650
C         -2.45900        4.02050       -3.79990
C         -3.80000        4.23440       -3.39420
C         -4.68740        3.15110       -3.23590
C         -6.10780        3.41300       -2.99470
C         -6.85390        2.75000       -2.02560
C         -8.19130        3.03280       -1.82690
C         -8.84350        3.98350       -2.60300
S        -10.53340        4.45170       -2.45710
C        -11.25740        3.19340       -1.34970
C        -11.40910        1.84480       -2.02760
C         -8.08330        4.64820       -3.56910
C         -6.74860        4.38550       -3.76690
F         -8.67830        5.58270       -4.33750
C         -4.09030        1.89560       -3.20680
S         -4.78610        0.43360       -2.53960
C         -3.98400        5.52960       -2.83150
C         -2.83600        6.26170       -2.77390
S         -1.54850        5.51380       -3.73750
C         -2.33750        6.99900       -1.63790
C         -2.53810        6.46100       -0.39450
C         -1.42100        6.59670        0.46630
C         -1.10410        5.72260        1.52100
C         -1.98680        4.60190        1.89360
C         -2.34540        4.35100        3.21550
C         -3.11220        3.25260        3.53820
C         -3.54170        2.36120        2.55170
O         -4.27190        1.30230        2.99480
C         -4.78920        0.36730        2.07120
C         -6.04920        0.87140        1.37440
C         -3.17380        2.59970        1.23040
C         -2.39960        3.70110        0.91650
C          0.20470        5.75390        1.97260
C          1.18990        6.62740        1.44610
C          0.87160        7.49670        0.38730
C          1.91190        8.22470       -0.35780
C          2.96270        7.52980       -0.94630
C          3.93520        8.18590       -1.67690
C          3.86900        9.56680       -1.84010
O          4.76700       10.31090       -2.53010
C          5.88720        9.66440       -3.10530
C          6.73790       10.72160       -3.78920
C          2.80250       10.26510       -1.26790
C          1.83640        9.60260       -0.54380
C         -0.42250        7.42960       -0.09800
S         -0.89180        7.99180       -1.69290
C          2.49940        6.22740        1.81420
C          2.54050        5.01770        2.45320
S          0.93240        4.48090        2.92540
C          3.57730        4.04400        2.27890
C          4.56850        4.16500        1.34170
C          4.98110        2.92780        0.79440
C          5.65640        2.76070       -0.42600
C          6.32500        3.89410       -1.07940
C          7.32980        4.60170       -0.42260
C          7.99320        5.62950       -1.05860
C          7.65920        6.01280       -2.35610
S          8.58180        7.34360       -3.07360
C          8.76240        6.86620       -4.83230
C          9.40270        5.50260       -4.99670
C          6.60360        5.34580       -2.96900
F          6.16700        5.72350       -4.19400
C          5.95920        4.28800       -2.36160
C          5.53270        1.52010       -1.02770
C          4.88250        0.42250       -0.40890
C          4.34080        0.55480        0.88160
C          3.76830       -0.61430        1.56640
C          2.74340       -1.37750        1.01050
C          2.33950       -2.54920        1.61060
C          2.93650       -3.01440        2.78370
S          2.39170       -4.59060        3.36570
C          2.71990       -4.58120        5.17440
C          1.84530       -5.62520        5.84010
C          3.92460       -2.21750        3.35010
C          4.32910       -1.03300        2.76640
F          4.54660       -2.57750        4.50080
C          4.34500        1.82880        1.42380
S          3.32190        2.36460        2.73740
C          4.73580       -0.67080       -1.29960
C          5.20420       -0.42210       -2.55370
S          6.00870        1.13330       -2.66100
C          4.89080       -1.13270       -3.75140
C          5.41020       -0.96060       -4.99600
C          4.66450       -1.60680       -6.01690
C          4.87510       -1.54520       -7.40140
C          5.99990       -0.78400       -7.95790
C          7.30780       -1.00960       -7.53170
C          8.34630       -0.25070       -8.02250
C          8.11090        0.76730       -8.94990
O          9.21500        1.45190       -9.35680
C          9.07400        2.59180      -10.17890
C          8.57310        3.81080       -9.40850
C          6.80880        0.98810       -9.38750
C          5.77240        0.21410       -8.89720
C          3.93350       -2.17880       -8.19850
C          2.80140       -2.85150       -7.68030
C          2.57670       -2.89050       -6.29660
C          1.37190       -3.51220       -5.72540
C          1.04390       -4.83740       -6.00570
C         -0.09390       -5.40450       -5.47800
C         -0.94460       -4.66180       -4.65550
O         -2.04530       -5.31870       -4.20450
C         -2.97140       -4.63630       -3.38410
C         -4.11760       -5.59310       -3.09600
C         -0.62020       -3.34050       -4.36640
C          0.52820       -2.78020       -4.89820
C          3.52510       -2.26890       -5.50030
S          3.45850       -2.15230       -3.76120
C          1.98480       -3.38500       -8.72240
C          2.48560       -3.15430       -9.95230
S          3.96970       -2.26170       -9.94240
H         -2.54730       -9.39150       12.88320
H         -0.99440       -7.49170       12.00120
H          0.71050       -7.57520       10.12780
H          2.82190       -6.41260       10.62260
H          3.02150       -1.52800        9.98540
H          4.74730       -1.91580        9.85700
H          3.77790       -1.73100        7.57970
H          4.25390       -3.40330        7.88990
H          2.55100       -2.93900        7.97960
H         -1.17880       -3.78200        9.50520
H         -4.17330       -9.17770        6.11630
H         -6.06720      -10.42900        5.25520
H         -7.62610      -11.63180        4.44060
H         -9.38690      -11.78340        4.37710
H         -7.88810       -9.10860        4.27710
H         -8.61650       -9.92030        2.88640
H         -9.63710       -9.32150        4.19900
H         -6.32670       -8.38310        9.73330
H         -4.63990       -6.79540        5.87600
H         -1.64340       -3.20000        4.93130
H          0.18500       -2.99530        3.78450
H          1.65150       -1.53490        5.06360
H          3.30200        0.08410        5.33200
H          2.07950        0.13220        6.63600
H          2.52000        2.56340        6.94510
H          4.00660        1.62370        7.16110
H          3.72310        2.51770        5.65650
H         -0.17010        1.87810        3.26060
H         -1.70120        0.41900        2.04500
H         -6.38400       -2.94680        0.07220
H         -8.20280       -4.29140       -0.92080
H         -9.24140       -8.44040       -1.71380
H         -7.85700       -8.72700       -0.64090
H         -6.30990       -8.14360       -2.56520
H         -7.72160       -7.90570       -3.59380
H         -7.36080       -9.51470       -2.95300
H         -5.94230       -7.84880       -0.21080
H         -4.15160       -6.52090        0.74770
H         -4.60680       -2.67070       -1.53500
H         -1.20520        0.16370       -3.08010
H         -1.11500        0.96900       -5.77810
H          1.17820        0.52260       -6.55250
H          4.26610        3.81770       -5.31880
H          4.19130        3.53500       -7.07200
H          6.54940        3.85880       -6.31510
H          6.31820        2.20820       -6.91870
H          6.37590        2.51360       -5.18020
H          0.42160        3.87920       -3.03340
H         -6.38300        2.01640       -1.39280
H         -8.71800        2.50620       -1.04810
H        -12.23200        3.61030       -1.09600
H        -10.65720        3.14090       -0.44230
H        -10.44380        1.44970       -2.33650
H        -12.03850        1.93810       -2.90930
H        -11.87210        1.13680       -1.34280
H         -6.21540        4.92400       -4.53480
H         -4.89130        5.82180       -2.33360
H         -3.37940        5.83210       -0.16600
H         -2.02280        5.02800        3.99260
H         -3.39060        3.05130        4.56030
H         -4.03050        0.08590        1.33230
H         -5.01860       -0.51790        2.67160
H         -5.84960        1.81320        0.86800
H         -6.83770        1.03650        2.10410
H         -6.38450        0.13760        0.64570
H         -3.46330        1.93320        0.43190
H         -2.09120        3.84400       -0.10970
H          3.00810        6.45340       -0.85720
H          4.73080        7.60830       -2.12030
H          6.47230        9.16130       -2.32380
H          5.55580        8.91390       -3.83580
H          7.03710       11.47750       -3.06850
H          7.62660       10.25830       -4.20800
H          6.17260       11.20240       -4.58280
H          2.75600       11.33300       -1.41050
H          1.01840       10.15500       -0.10530
H          3.37780        6.75550        1.49260
H          4.87570        5.10680        0.92460
H          7.60970        4.32030        0.58130
H          8.79270        6.15610       -0.56100
H          7.78900        6.92160       -5.31540
H          9.40270        7.65110       -5.23520
H          8.76300        4.71850       -4.59600
H         10.35950        5.46530       -4.48020
H          9.56810        5.30270       -6.05350
H          5.14740        3.80480       -2.87870
H          2.25290       -1.04240        0.10970
H          1.55360       -3.14210        1.16910
H          2.48210       -3.58560        5.54150
H          3.77650       -4.79090        5.33280
H          2.06570       -6.61540        5.44830
H          0.79330       -5.41080        5.66640
H          2.02430       -5.62750        6.91390
H          5.11870       -0.46540        3.23560
H          4.24110       -1.59010       -1.04350
H          6.27150       -0.34660       -5.18870
H          7.50800       -1.79810       -6.82130
H          9.36170       -0.42280       -7.70170
H          8.42450        2.37720      -11.03640
H         10.08400        2.78030      -10.55380
H          7.57440        3.63960       -9.01470
H          9.24010        4.01470       -8.57430
H          8.55140        4.67650      -10.06470
H          6.58220        1.75830      -10.10810
H          4.76440        0.41170       -9.22970
H          1.69960       -5.42830       -6.62830
H         -0.35330       -6.43060       -5.68640
H         -3.34520       -3.73990       -3.89920
H         -2.49140       -4.32470       -2.44580
H         -4.86500       -5.10850       -2.47470
H         -4.57630       -5.91080       -4.02860
H         -3.74220       -6.47040       -2.57640
H         -1.25270       -2.73850       -3.73190
H          0.76130       -1.74790       -4.67980
H          1.06470       -3.90990       -8.53860
H          2.07440       -3.44900      -10.89820
