206

C          7.16990       -2.92780        5.03550
C          7.75350       -1.78040        4.63190
C          6.99070       -1.08780        3.64730
C          7.26010        0.15890        3.06410
C          8.46330        0.94150        3.37350
C          9.73920        0.39130        3.26480
C         10.85590        1.16600        3.49120
C         10.75070        2.51060        3.85010
S         12.25120        3.39320        4.12020
C         11.84020        5.12580        3.66320
C         13.11980        5.84550        3.28600
C          9.46820        3.03270        3.99920
F          9.27750        4.30330        4.41100
C          8.34260        2.27550        3.74920
C          6.32190        0.63390        2.16200
C          5.13630       -0.06440        1.82430
C          4.83170       -1.28220        2.46170
C          3.52240       -1.92720        2.31250
C          2.36520       -1.17360        2.49700
C          1.11480       -1.76030        2.48760
C          0.97300       -3.12740        2.28010
S         -0.54300       -4.02660        2.30610
C         -1.81120       -2.77400        2.70020
C         -2.24320       -1.97820        1.48250
C          2.13860       -3.86580        2.05920
C          3.39210       -3.29590        2.08200
F          2.03120       -5.18870        1.83070
C          5.79030       -1.77620        3.33600
S          5.65850       -3.25000        4.26120
C          4.40390        0.60530        0.81800
C          4.95890        1.79830        0.42920
S          6.45290        2.13300        1.28390
C          4.41460        2.68730       -0.53600
S          3.39180        2.05320       -1.77080
C          3.00420        3.63640       -2.40230
C          3.67350        4.62560       -1.67300
C          4.50870        4.08650       -0.64060
C          5.27600        4.94390        0.15780
C          5.23390        6.30570       -0.06860
C          6.02600        7.26350        0.69800
O          6.02440        8.45820        0.53740
C          6.95660        6.67380        1.80400
F          7.87300        5.82670        1.29770
F          6.27260        5.98730        2.73610
F          7.62350        7.63500        2.43430
C          4.40290        6.83380       -1.09650
C          3.64020        6.02120       -1.87790
C          2.02940        3.74460       -3.41390
S          0.83340        5.00420       -3.40890
C         -0.19280        4.15770       -4.55330
C          0.49710        3.04820       -5.08370
C          1.72860        2.78740       -4.40700
C          2.49280        1.67950       -4.76930
C          2.04900        0.81620       -5.76120
C          2.87950       -0.35450       -6.01980
O          3.97670       -0.55140       -5.55580
C          2.25400       -1.45930       -6.92290
F          2.08530       -1.05870       -8.19240
F          3.01050       -2.55280       -6.94980
F          1.04140       -1.83720       -6.47120
C          0.84900        1.10250       -6.45760
C          0.10240        2.20100       -6.13560
C         -1.57930        4.36300       -4.57000
S         -2.60570        3.08620       -5.16070
C         -3.96330        3.58770       -4.18130
C         -3.70070        4.82740       -3.59820
C         -2.35950        5.28590       -3.83240
C         -1.93450        6.50320       -3.30220
C         -2.80680        7.25750       -2.53360
C         -2.44310        8.53270       -1.93290
O         -3.17840        9.23890       -1.28530
C         -0.96910        9.00020       -2.13140
F         -0.73270       10.14500       -1.50050
F         -0.08050        8.10100       -1.66140
F         -0.66080        9.19300       -3.42780
C         -4.12990        6.79080       -2.29470
C         -4.57020        5.61080       -2.80930
C         -4.87470        2.55810       -3.83490
C         -4.82560        1.29870       -4.37810
C         -5.30950        0.29160       -3.52070
C         -5.07320       -1.08730       -3.63310
C         -4.37760       -1.67990       -4.78450
C         -3.11980       -1.22080       -5.17440
C         -2.45430       -1.81130       -6.22530
C         -3.00270       -2.88540       -6.92750
S         -2.00460       -3.56240       -8.21670
C         -3.18070       -4.20110       -9.46460
C         -4.07540       -3.10930      -10.01570
C         -4.24280       -3.35400       -6.50290
F         -4.82820       -4.41700       -7.09580
C         -4.92700       -2.76370       -5.45820
C         -5.35050       -1.84890       -2.51310
C         -5.89480       -1.32520       -1.31220
C         -6.20860        0.04570       -1.23490
C         -6.75760        0.67060       -0.02430
C         -6.16500        0.51240        1.22380
C         -6.68610        1.12610        2.34690
C         -7.81960        1.92670        2.26110
S         -8.60890        2.74100        3.60680
C         -7.38960        2.65840        4.96370
C         -6.19870        3.56650        4.72280
C         -8.40070        2.08080        0.99990
C         -7.88910        1.47830       -0.12610
F         -9.50180        2.84610        0.87750
C         -5.87220        0.82270       -2.33250
S         -5.80000        2.57400       -2.33450
C         -5.86540       -2.28640       -0.26780
C         -5.24600       -3.45140       -0.61890
S         -4.82480       -3.49710       -2.32180
C         -4.70150       -4.46540        0.22400
C         -3.69430       -5.31210       -0.13450
C         -3.11980       -6.01470        0.95140
C         -1.98400       -6.83820        0.92630
C         -1.19850       -6.97560       -0.30450
C         -0.78040       -5.83050       -0.97890
C         -0.06140       -5.91140       -2.15340
C          0.25430       -7.14650       -2.70940
S          1.12750       -7.38820       -4.21790
C          1.16040       -5.73490       -4.99520
C         -0.19890       -5.30110       -5.50950
C         -0.13930       -8.28570       -2.00260
F          0.16880       -9.50000       -2.49930
C         -0.84490       -8.21880       -0.82140
C         -1.61060       -7.41250        2.13180
C         -2.27420       -7.13630        3.35250
C         -3.36750       -6.25590        3.38450
C         -3.99590       -5.84540        4.64640
C         -5.37290       -5.92060        4.82610
C         -5.96260       -5.50910        6.00600
C         -5.19390       -5.00130        7.04690
S         -5.81620       -4.41590        8.58840
C         -7.50750       -5.09790        8.67610
C         -7.51320       -6.60370        8.85800
C         -3.81490       -4.91410        6.84410
C         -3.21370       -5.32760        5.67730
F         -3.03990       -4.40070        7.82150
C         -3.78180       -5.73400        2.17000
S         -5.05860       -4.55550        1.94070
C         -1.66940       -7.82740        4.44200
C         -0.60050       -8.56110        4.06650
S         -0.25020       -8.46980        2.37720
H          7.53300       -3.63120        5.75920
H          8.68580       -1.41380        5.02050
H          9.85320       -0.63870        2.96260
H         11.84320        0.74410        3.38540
H         11.15010        5.08270        2.82200
H         11.35730        5.60220        4.51490
H         12.89230        6.87390        3.01450
H         13.59920        5.35740        2.44030
H         13.81620        5.85110        4.12160
H          7.37550        2.73440        3.88610
H          2.44660       -0.11490        2.69280
H          0.25230       -1.13860        2.66260
H         -1.43090       -2.14170        3.50100
H         -2.64340       -3.35990        3.09000
H         -2.64390       -2.64290        0.72070
H         -3.01950       -1.26890        1.76360
H         -1.40960       -1.42860        1.05060
H          4.25400       -3.92050        1.91050
H          3.48900        0.22580        0.39790
H          5.89050        4.51490        0.92990
H          4.39980        7.90340       -1.23470
H          3.01450        6.43210       -2.65440
H          3.43910        1.47140       -4.29440
H          0.52950        0.47840       -7.27530
H         -0.77470        2.43740       -6.71580
H         -0.93960        6.84720       -3.53120
H         -4.77600        7.41480       -1.69760
H         -5.58000        5.27180       -2.63950
H         -4.34920        1.09250       -5.31990
H         -2.65210       -0.41060       -4.63540
H         -1.47880       -1.45780       -6.51760
H         -3.75080       -5.01940       -9.03150
H         -2.52380       -4.59750      -10.23910
H         -4.72650       -2.71060       -9.24040
H         -3.47850       -2.29440      -10.42020
H         -4.69830       -3.51450      -10.81030
H         -5.88930       -3.16350       -5.17790
H         -5.26630       -0.07860        1.31640
H         -6.19920        0.96970        3.29580
H         -7.95720        2.98820        5.83360
H         -7.10120        1.61880        5.11380
H         -5.66150        3.27920        3.82120
H         -6.52980        4.59590        4.60950
H         -5.51520        3.51190        5.56800
H         -8.38310        1.62850       -1.07330
H         -6.22370       -2.10300        0.72890
H         -3.34600       -5.40320       -1.14790
H         -0.99870       -4.86040       -0.55940
H          0.25480       -4.99960       -2.63320
H          1.58570       -5.02550       -4.28660
H          1.86190       -5.85740       -5.82020
H         -0.11660       -4.33040       -5.99410
H         -0.92390       -5.22370       -4.70170
H         -0.57150       -6.01830       -6.23640
H         -1.13580       -9.13330       -0.32940
H         -5.99260       -6.32080        4.03820
H         -7.03350       -5.58160        6.10350
H         -7.93450       -4.60100        9.54720
H         -8.05990       -4.78130        7.79230
H         -8.53700       -6.96100        8.95050
H         -7.04590       -7.10260        8.01140
H         -6.96760       -6.87430        9.75890
H         -2.14480       -5.22910        5.56690
H         -2.03630       -7.77780        5.45120
H          0.02490       -9.17260        4.68750
