
  xtb     03052206583D
 energy: -364.743513390505 gnorm: 0.000304178698 xtb: 6.4.1 (unknown)
212232  0     0  0            999 V2000
    5.4959   -7.2491    1.5722 C   0  0  0  0  0  0  0  0  0  0  0  0
    5.1661   -7.4259    0.2779 C   0  0  0  0  0  0  0  0  0  0  0  0
    3.9393   -6.7881   -0.0790 C   0  0  0  0  0  0  0  0  0  0  0  0
    3.2999   -6.7825   -1.3275 C   0  0  0  0  0  0  0  0  0  0  0  0
    3.9113   -7.3977   -2.5110 C   0  0  0  0  0  0  0  0  0  0  0  0
    5.2275   -7.1142   -2.8661 C   0  0  0  0  0  0  0  0  0  0  0  0
    5.7998   -7.6656   -3.9961 C   0  0  0  0  0  0  0  0  0  0  0  0
    5.0810   -8.5384   -4.8048 C   0  0  0  0  0  0  0  0  0  0  0  0
    5.6755   -9.3034   -6.2760 S   0  0  0  0  0  0  0  0  0  0  0  0
    7.4774   -9.0088   -6.2417 C   0  0  0  0  0  0  0  0  0  0  0  0
    8.1788   -9.8381   -5.1826 C   0  0  0  0  0  0  0  0  0  0  0  0
    3.7619   -8.8124   -4.4375 C   0  0  0  0  0  0  0  0  0  0  0  0
    3.0357   -9.6550   -5.1984 F   0  0  0  0  0  0  0  0  0  0  0  0
    3.1748   -8.2577   -3.3232 C   0  0  0  0  0  0  0  0  0  0  0  0
    2.0753   -6.1324   -1.3951 C   0  0  0  0  0  0  0  0  0  0  0  0
    1.4822   -5.4856   -0.2842 C   0  0  0  0  0  0  0  0  0  0  0  0
    2.1323   -5.4680    0.9617 C   0  0  0  0  0  0  0  0  0  0  0  0
    1.5650   -4.7392    2.1015 C   0  0  0  0  0  0  0  0  0  0  0  0
    0.2117   -4.8257    2.4250 C   0  0  0  0  0  0  0  0  0  0  0  0
   -0.3420   -4.0411    3.4195 C   0  0  0  0  0  0  0  0  0  0  0  0
    0.4422   -3.1557    4.1517 C   0  0  0  0  0  0  0  0  0  0  0  0
   -0.1496   -1.9989    5.3455 S   0  0  0  0  0  0  0  0  0  0  0  0
   -1.7971   -2.6323    5.8065 C   0  0  0  0  0  0  0  0  0  0  0  0
   -1.7144   -3.9207    6.6008 C   0  0  0  0  0  0  0  0  0  0  0  0
    1.8101   -3.1425    3.8752 C   0  0  0  0  0  0  0  0  0  0  0  0
    2.3697   -3.9008    2.8723 C   0  0  0  0  0  0  0  0  0  0  0  0
    2.6154   -2.3424    4.6034 F   0  0  0  0  0  0  0  0  0  0  0  0
    3.3551   -6.1251    1.0265 C   0  0  0  0  0  0  0  0  0  0  0  0
    4.3462   -6.3003    2.4541 S   0  0  0  0  0  0  0  0  0  0  0  0
    0.2779   -4.8293   -0.6513 C   0  0  0  0  0  0  0  0  0  0  0  0
   -0.0366   -4.9389   -1.9668 C   0  0  0  0  0  0  0  0  0  0  0  0
    1.1297   -5.9038   -2.8469 S   0  0  0  0  0  0  0  0  0  0  0  0
   -1.2085   -4.3547   -2.5676 C   0  0  0  0  0  0  0  0  0  0  0  0
   -1.1573   -3.1922   -3.8620 S   0  0  0  0  0  0  0  0  0  0  0  0
   -2.8685   -2.9114   -3.7433 C   0  0  0  0  0  0  0  0  0  0  0  0
   -3.4353   -3.7396   -2.7892 C   0  0  0  0  0  0  0  0  0  0  0  0
   -2.4939   -4.5459   -2.1071 C   0  0  0  0  0  0  0  0  0  0  0  0
   -2.6963   -5.4455   -1.1100 O   0  0  0  0  0  0  0  0  0  0  0  0
   -3.8971   -5.3749   -0.3596 C   0  0  0  0  0  0  0  0  0  0  0  0
   -4.2163   -3.9499    0.1012 C   0  0  0  0  0  0  0  0  0  0  0  0
   -5.2604   -3.2542   -0.7679 C   0  0  0  0  0  0  0  0  0  0  0  0
   -5.1815   -3.7606   -2.5245 S   0  0  0  0  0  0  0  0  0  0  0  0
   -3.5598   -1.8483   -4.3782 C   0  0  0  0  0  0  0  0  0  0  0  0
   -2.9965   -0.7598   -4.9494 C   0  0  0  0  0  0  0  0  0  0  0  0
   -3.7006    0.4662   -5.1248 C   0  0  0  0  0  0  0  0  0  0  0  0
   -2.7882    1.9472   -5.0664 S   0  0  0  0  0  0  0  0  0  0  0  0
   -4.2212    2.8912   -4.7554 C   0  0  0  0  0  0  0  0  0  0  0  0
   -5.3550    2.0966   -4.8704 C   0  0  0  0  0  0  0  0  0  0  0  0
   -5.0651    0.7250   -5.0446 C   0  0  0  0  0  0  0  0  0  0  0  0
   -5.9528   -0.3033   -5.1142 O   0  0  0  0  0  0  0  0  0  0  0  0
   -7.1204   -0.2061   -4.3157 C   0  0  0  0  0  0  0  0  0  0  0  0
   -8.3019    0.3929   -5.0804 C   0  0  0  0  0  0  0  0  0  0  0  0
   -7.8945    1.6682   -5.8038 C   0  0  0  0  0  0  0  0  0  0  0  0
   -6.9631    2.8123   -4.7260 S   0  0  0  0  0  0  0  0  0  0  0  0
   -4.1754    4.1884   -4.1884 C   0  0  0  0  0  0  0  0  0  0  0  0
   -3.0257    4.7753   -3.7753 C   0  0  0  0  0  0  0  0  0  0  0  0
   -2.9260    5.8287   -2.8267 C   0  0  0  0  0  0  0  0  0  0  0  0
   -1.3911    6.0388   -2.0338 S   0  0  0  0  0  0  0  0  0  0  0  0
   -2.0930    7.0285   -0.7760 C   0  0  0  0  0  0  0  0  0  0  0  0
   -3.4305    7.2577   -1.0393 C   0  0  0  0  0  0  0  0  0  0  0  0
   -3.9052    6.5821   -2.1905 C   0  0  0  0  0  0  0  0  0  0  0  0
   -5.2037    6.5411   -2.6129 O   0  0  0  0  0  0  0  0  0  0  0  0
   -5.7751    7.7492   -3.0830 C   0  0  0  0  0  0  0  0  0  0  0  0
   -6.3498    8.6345   -1.9766 C   0  0  0  0  0  0  0  0  0  0  0  0
   -5.2787    9.3274   -1.1500 C   0  0  0  0  0  0  0  0  0  0  0  0
   -4.4346    8.2259    0.0389 S   0  0  0  0  0  0  0  0  0  0  0  0
   -1.2931    7.1635    0.3951 C   0  0  0  0  0  0  0  0  0  0  0  0
   -1.7415    7.1836    1.6700 C   0  0  0  0  0  0  0  0  0  0  0  0
   -0.8861    6.7289    2.7275 C   0  0  0  0  0  0  0  0  0  0  0  0
    0.4759    6.7083    2.7973 C   0  0  0  0  0  0  0  0  0  0  0  0
    0.9936    5.6498    3.5913 C   0  0  0  0  0  0  0  0  0  0  0  0
    2.3177    5.1681    3.5718 C   0  0  0  0  0  0  0  0  0  0  0  0
    3.3980    6.0320    3.0830 C   0  0  0  0  0  0  0  0  0  0  0  0
    4.3319    5.6203    2.1343 C   0  0  0  0  0  0  0  0  0  0  0  0
    5.3220    6.4784    1.7063 C   0  0  0  0  0  0  0  0  0  0  0  0
    5.4365    7.7724    2.2113 C   0  0  0  0  0  0  0  0  0  0  0  0
    6.7886    8.7488    1.6241 S   0  0  0  0  0  0  0  0  0  0  0  0
    6.1056   10.4426    1.4899 C   0  0  0  0  0  0  0  0  0  0  0  0
    4.9032   10.4996    0.5693 C   0  0  0  0  0  0  0  0  0  0  0  0
    4.5098    8.1642    3.1731 C   0  0  0  0  0  0  0  0  0  0  0  0
    4.5709    9.3904    3.7398 F   0  0  0  0  0  0  0  0  0  0  0  0
    3.4968    7.3259    3.5898 C   0  0  0  0  0  0  0  0  0  0  0  0
    2.4865    3.8370    3.9280 C   0  0  0  0  0  0  0  0  0  0  0  0
    1.4291    3.0432    4.4416 C   0  0  0  0  0  0  0  0  0  0  0  0
    0.1533    3.5902    4.6365 C   0  0  0  0  0  0  0  0  0  0  0  0
   -0.9693    2.7555    5.0976 C   0  0  0  0  0  0  0  0  0  0  0  0
   -1.3890    1.6640    4.3402 C   0  0  0  0  0  0  0  0  0  0  0  0
   -2.4430    0.8845    4.7653 C   0  0  0  0  0  0  0  0  0  0  0  0
   -3.1030    1.1534    5.9611 C   0  0  0  0  0  0  0  0  0  0  0  0
   -4.3988    0.0461    6.4537 S   0  0  0  0  0  0  0  0  0  0  0  0
   -5.7266    1.1706    7.0189 C   0  0  0  0  0  0  0  0  0  0  0  0
   -6.1461    2.1404    5.9330 C   0  0  0  0  0  0  0  0  0  0  0  0
   -2.6671    2.2410    6.7094 C   0  0  0  0  0  0  0  0  0  0  0  0
   -1.6317    3.0493    6.2812 C   0  0  0  0  0  0  0  0  0  0  0  0
   -3.2465    2.5406    7.8916 F   0  0  0  0  0  0  0  0  0  0  0  0
   -0.0441    4.8737    4.1624 C   0  0  0  0  0  0  0  0  0  0  0  0
   -1.6116    5.5799    3.8556 S   0  0  0  0  0  0  0  0  0  0  0  0
    1.7441    1.6613    4.4351 C   0  0  0  0  0  0  0  0  0  0  0  0
    2.9522    1.3811    3.8748 C   0  0  0  0  0  0  0  0  0  0  0  0
    3.8848    2.8434    3.5705 S   0  0  0  0  0  0  0  0  0  0  0  0
    3.2008    0.2017    3.0879 C   0  0  0  0  0  0  0  0  0  0  0  0
    4.2992   -0.4881    2.6950 C   0  0  0  0  0  0  0  0  0  0  0  0
    4.0563   -1.3537    1.5848 C   0  0  0  0  0  0  0  0  0  0  0  0
    4.9496   -2.1758    0.8794 C   0  0  0  0  0  0  0  0  0  0  0  0
    6.3421   -2.3730    1.3015 C   0  0  0  0  0  0  0  0  0  0  0  0
    7.1942   -1.3004    1.5567 C   0  0  0  0  0  0  0  0  0  0  0  0
    8.5055   -1.5206    1.9198 C   0  0  0  0  0  0  0  0  0  0  0  0
    9.0171   -2.8101    2.0592 C   0  0  0  0  0  0  0  0  0  0  0  0
   10.7020   -2.9559    2.5751 S   0  0  0  0  0  0  0  0  0  0  0  0
   11.3427   -4.3845    1.6256 C   0  0  0  0  0  0  0  0  0  0  0  0
   11.1940   -4.1870    0.1304 C   0  0  0  0  0  0  0  0  0  0  0  0
    8.1469   -3.8700    1.8256 C   0  0  0  0  0  0  0  0  0  0  0  0
    8.5502   -5.1520    1.9767 F   0  0  0  0  0  0  0  0  0  0  0  0
    6.8407   -3.6643    1.4334 C   0  0  0  0  0  0  0  0  0  0  0  0
    4.4644   -2.7879   -0.2713 C   0  0  0  0  0  0  0  0  0  0  0  0
    3.1569   -2.5899   -0.7764 C   0  0  0  0  0  0  0  0  0  0  0  0
    2.2380   -1.8540   -0.0245 C   0  0  0  0  0  0  0  0  0  0  0  0
    0.8676   -1.5341   -0.4471 C   0  0  0  0  0  0  0  0  0  0  0  0
   -0.2014   -1.7203    0.4288 C   0  0  0  0  0  0  0  0  0  0  0  0
   -1.4609   -1.2570    0.1089 C   0  0  0  0  0  0  0  0  0  0  0  0
   -1.6936   -0.5803   -1.0820 C   0  0  0  0  0  0  0  0  0  0  0  0
   -3.3165    0.0700   -1.4124 S   0  0  0  0  0  0  0  0  0  0  0  0
   -2.9352    1.8567   -1.5195 C   0  0  0  0  0  0  0  0  0  0  0  0
   -2.4268    2.4119   -0.2046 C   0  0  0  0  0  0  0  0  0  0  0  0
   -0.6272   -0.4271   -1.9594 C   0  0  0  0  0  0  0  0  0  0  0  0
    0.6365   -0.8967   -1.6596 C   0  0  0  0  0  0  0  0  0  0  0  0
   -0.7881    0.2359   -3.1192 F   0  0  0  0  0  0  0  0  0  0  0  0
    2.7123   -1.2796    1.1450 C   0  0  0  0  0  0  0  0  0  0  0  0
    1.7726   -0.2249    2.1477 S   0  0  0  0  0  0  0  0  0  0  0  0
    2.9810   -3.1976   -2.0536 C   0  0  0  0  0  0  0  0  0  0  0  0
    4.0834   -3.8398   -2.4849 C   0  0  0  0  0  0  0  0  0  0  0  0
    5.4072   -3.7605   -1.3720 S   0  0  0  0  0  0  0  0  0  0  0  0
    6.3628   -7.6103    2.0901 H   0  0  0  0  0  0  0  0  0  0  0  0
    5.7531   -8.0037   -0.4121 H   0  0  0  0  0  0  0  0  0  0  0  0
    5.8066   -6.4279   -2.2664 H   0  0  0  0  0  0  0  0  0  0  0  0
    6.8141   -7.3986   -4.2449 H   0  0  0  0  0  0  0  0  0  0  0  0
    7.6551   -7.9408   -6.1225 H   0  0  0  0  0  0  0  0  0  0  0  0
    7.8008   -9.3036   -7.2400 H   0  0  0  0  0  0  0  0  0  0  0  0
    7.9974  -10.8962   -5.3553 H   0  0  0  0  0  0  0  0  0  0  0  0
    7.8193   -9.5875   -4.1869 H   0  0  0  0  0  0  0  0  0  0  0  0
    9.2515   -9.6577   -5.2211 H   0  0  0  0  0  0  0  0  0  0  0  0
    2.1556   -8.5164   -3.0843 H   0  0  0  0  0  0  0  0  0  0  0  0
   -0.4192   -5.5218    1.8934 H   0  0  0  0  0  0  0  0  0  0  0  0
   -1.4003   -4.1171    3.6126 H   0  0  0  0  0  0  0  0  0  0  0  0
   -2.3978   -2.7371    4.9041 H   0  0  0  0  0  0  0  0  0  0  0  0
   -2.2231   -1.8297    6.4083 H   0  0  0  0  0  0  0  0  0  0  0  0
   -1.1193   -3.7698    7.4983 H   0  0  0  0  0  0  0  0  0  0  0  0
   -1.2559   -4.7151    6.0150 H   0  0  0  0  0  0  0  0  0  0  0  0
   -2.7137   -4.2348    6.8950 H   0  0  0  0  0  0  0  0  0  0  0  0
    3.4273   -3.8112    2.6856 H   0  0  0  0  0  0  0  0  0  0  0  0
   -0.3200   -4.2505    0.0255 H   0  0  0  0  0  0  0  0  0  0  0  0
   -3.7021   -6.0282    0.4945 H   0  0  0  0  0  0  0  0  0  0  0  0
   -4.7319   -5.7941   -0.9341 H   0  0  0  0  0  0  0  0  0  0  0  0
   -3.2850   -3.3784    0.0785 H   0  0  0  0  0  0  0  0  0  0  0  0
   -4.5766   -3.9624    1.1313 H   0  0  0  0  0  0  0  0  0  0  0  0
   -5.1427   -2.1707   -0.7292 H   0  0  0  0  0  0  0  0  0  0  0  0
   -6.2718   -3.5210   -0.4623 H   0  0  0  0  0  0  0  0  0  0  0  0
   -4.6274   -1.8601   -4.2162 H   0  0  0  0  0  0  0  0  0  0  0  0
   -1.9273   -0.7216   -5.1082 H   0  0  0  0  0  0  0  0  0  0  0  0
   -6.9105    0.3857   -3.4173 H   0  0  0  0  0  0  0  0  0  0  0  0
   -7.3537   -1.2301   -4.0087 H   0  0  0  0  0  0  0  0  0  0  0  0
   -9.1036    0.5968   -4.3693 H   0  0  0  0  0  0  0  0  0  0  0  0
   -8.6645   -0.3225   -5.8211 H   0  0  0  0  0  0  0  0  0  0  0  0
   -7.2562    1.4513   -6.6598 H   0  0  0  0  0  0  0  0  0  0  0  0
   -8.7667    2.2265   -6.1411 H   0  0  0  0  0  0  0  0  0  0  0  0
   -5.1303    4.6274   -3.9359 H   0  0  0  0  0  0  0  0  0  0  0  0
   -2.0837    4.3126   -4.0444 H   0  0  0  0  0  0  0  0  0  0  0  0
   -6.5842    7.4272   -3.7447 H   0  0  0  0  0  0  0  0  0  0  0  0
   -5.0395    8.3111   -3.6749 H   0  0  0  0  0  0  0  0  0  0  0  0
   -6.9799    9.3948   -2.4440 H   0  0  0  0  0  0  0  0  0  0  0  0
   -6.9751    8.0217   -1.3243 H   0  0  0  0  0  0  0  0  0  0  0  0
   -4.5137    9.7824   -1.7807 H   0  0  0  0  0  0  0  0  0  0  0  0
   -5.7214   10.0961   -0.5166 H   0  0  0  0  0  0  0  0  0  0  0  0
   -0.2364    6.9976    0.2250 H   0  0  0  0  0  0  0  0  0  0  0  0
   -2.7973    7.2671    1.8817 H   0  0  0  0  0  0  0  0  0  0  0  0
    1.1027    7.3566    2.2114 H   0  0  0  0  0  0  0  0  0  0  0  0
    4.2638    4.6346    1.7034 H   0  0  0  0  0  0  0  0  0  0  0  0
    6.0342    6.1586    0.9618 H   0  0  0  0  0  0  0  0  0  0  0  0
    6.9398   11.0137    1.0822 H   0  0  0  0  0  0  0  0  0  0  0  0
    5.8756   10.8140    2.4860 H   0  0  0  0  0  0  0  0  0  0  0  0
    4.5816   11.5324    0.4507 H   0  0  0  0  0  0  0  0  0  0  0  0
    5.1520   10.0951   -0.4097 H   0  0  0  0  0  0  0  0  0  0  0  0
    4.0731    9.9271    0.9789 H   0  0  0  0  0  0  0  0  0  0  0  0
    2.8045    7.6809    4.3380 H   0  0  0  0  0  0  0  0  0  0  0  0
   -0.8986    1.4399    3.4050 H   0  0  0  0  0  0  0  0  0  0  0  0
   -2.7748    0.0462    4.1730 H   0  0  0  0  0  0  0  0  0  0  0  0
   -5.3926    1.6838    7.9179 H   0  0  0  0  0  0  0  0  0  0  0  0
   -6.5387    0.4912    7.2784 H   0  0  0  0  0  0  0  0  0  0  0  0
   -5.3261    2.8060    5.6682 H   0  0  0  0  0  0  0  0  0  0  0  0
   -6.4569    1.6033    5.0390 H   0  0  0  0  0  0  0  0  0  0  0  0
   -6.9792    2.7451    6.2854 H   0  0  0  0  0  0  0  0  0  0  0  0
   -1.3339    3.8864    6.8934 H   0  0  0  0  0  0  0  0  0  0  0  0
    1.0545    0.8901    4.7283 H   0  0  0  0  0  0  0  0  0  0  0  0
    5.2574   -0.3832    3.1696 H   0  0  0  0  0  0  0  0  0  0  0  0
    6.8369   -0.2900    1.4309 H   0  0  0  0  0  0  0  0  0  0  0  0
    9.1677   -0.6884    2.1014 H   0  0  0  0  0  0  0  0  0  0  0  0
   12.3931   -4.4224    1.9146 H   0  0  0  0  0  0  0  0  0  0  0  0
   10.8482   -5.2903    1.9692 H   0  0  0  0  0  0  0  0  0  0  0  0
   11.6789   -3.2648   -0.1827 H   0  0  0  0  0  0  0  0  0  0  0  0
   11.6540   -5.0209   -0.3960 H   0  0  0  0  0  0  0  0  0  0  0  0
   10.1442   -4.1389   -0.1533 H   0  0  0  0  0  0  0  0  0  0  0  0
    6.2132   -4.5245    1.2629 H   0  0  0  0  0  0  0  0  0  0  0  0
   -0.0363   -2.2152    1.3739 H   0  0  0  0  0  0  0  0  0  0  0  0
   -2.2796   -1.3748    0.8026 H   0  0  0  0  0  0  0  0  0  0  0  0
   -2.2159    1.9995   -2.3233 H   0  0  0  0  0  0  0  0  0  0  0  0
   -3.8806    2.3177   -1.8050 H   0  0  0  0  0  0  0  0  0  0  0  0
   -2.2601    3.4830   -0.3035 H   0  0  0  0  0  0  0  0  0  0  0  0
   -3.1506    2.2454    0.5904 H   0  0  0  0  0  0  0  0  0  0  0  0
   -1.4861    1.9409    0.0781 H   0  0  0  0  0  0  0  0  0  0  0  0
    1.4382   -0.7195   -2.3593 H   0  0  0  0  0  0  0  0  0  0  0  0
    2.0637   -3.1417   -2.6107 H   0  0  0  0  0  0  0  0  0  0  0  0
    4.2147   -4.3823   -3.4007 H   0  0  0  0  0  0  0  0  0  0  0  0
  1  2  2  0  0  0  0
  2  3  1  0  0  0  0
  3  4  2  0  0  0  0
  4  5  1  0  0  0  0
  5  6  2  0  0  0  0
  6  7  1  0  0  0  0
  7  8  2  0  0  0  0
  8  9  1  0  0  0  0
  9 10  1  0  0  0  0
 10 11  1  0  0  0  0
  8 12  1  0  0  0  0
 12 13  1  0  0  0  0
 12 14  2  0  0  0  0
  4 15  1  0  0  0  0
 15 16  2  0  0  0  0
 16 17  1  0  0  0  0
 17 18  1  0  0  0  0
 18 19  2  0  0  0  0
 19 20  1  0  0  0  0
 20 21  2  0  0  0  0
 21 22  1  0  0  0  0
 22 23  1  0  0  0  0
 23 24  1  0  0  0  0
 21 25  1  0  0  0  0
 25 26  2  0  0  0  0
 25 27  1  0  0  0  0
 17 28  2  0  0  0  0
 28 29  1  0  0  0  0
 16 30  1  0  0  0  0
 30 31  2  0  0  0  0
 31 32  1  0  0  0  0
 31 33  1  0  0  0  0
 33 34  1  0  0  0  0
 34 35  1  0  0  0  0
 35 36  2  0  0  0  0
 36 37  1  0  0  0  0
 37 38  1  0  0  0  0
 38 39  1  0  0  0  0
 39 40  1  0  0  0  0
 40 41  1  0  0  0  0
 41 42  1  0  0  0  0
 35 43  1  0  0  0  0
 43 44  2  0  0  0  0
 44 45  1  0  0  0  0
 45 46  1  0  0  0  0
 46 47  1  0  0  0  0
 47 48  2  0  0  0  0
 48 49  1  0  0  0  0
 49 50  1  0  0  0  0
 50 51  1  0  0  0  0
 51 52  1  0  0  0  0
 52 53  1  0  0  0  0
 53 54  1  0  0  0  0
 47 55  1  0  0  0  0
 55 56  2  0  0  0  0
 56 57  1  0  0  0  0
 57 58  1  0  0  0  0
 58 59  1  0  0  0  0
 59 60  2  0  0  0  0
 60 61  1  0  0  0  0
 61 62  1  0  0  0  0
 62 63  1  0  0  0  0
 63 64  1  0  0  0  0
 64 65  1  0  0  0  0
 65 66  1  0  0  0  0
 59 67  1  0  0  0  0
 67 68  2  0  0  0  0
 68 69  1  0  0  0  0
 69 70  2  0  0  0  0
 70 71  1  0  0  0  0
 71 72  2  0  0  0  0
 72 73  1  0  0  0  0
 73 74  2  0  0  0  0
 74 75  1  0  0  0  0
 75 76  2  0  0  0  0
 76 77  1  0  0  0  0
 77 78  1  0  0  0  0
 78 79  1  0  0  0  0
 76 80  1  0  0  0  0
 80 81  1  0  0  0  0
 80 82  2  0  0  0  0
 72 83  1  0  0  0  0
 83 84  2  0  0  0  0
 84 85  1  0  0  0  0
 85 86  1  0  0  0  0
 86 87  2  0  0  0  0
 87 88  1  0  0  0  0
 88 89  2  0  0  0  0
 89 90  1  0  0  0  0
 90 91  1  0  0  0  0
 91 92  1  0  0  0  0
 89 93  1  0  0  0  0
 93 94  2  0  0  0  0
 93 95  1  0  0  0  0
 85 96  2  0  0  0  0
 96 97  1  0  0  0  0
 84 98  1  0  0  0  0
 98 99  2  0  0  0  0
 99100  1  0  0  0  0
 99101  1  0  0  0  0
101102  2  0  0  0  0
102103  1  0  0  0  0
103104  2  0  0  0  0
104105  1  0  0  0  0
105106  2  0  0  0  0
106107  1  0  0  0  0
107108  2  0  0  0  0
108109  1  0  0  0  0
109110  1  0  0  0  0
110111  1  0  0  0  0
108112  1  0  0  0  0
112113  1  0  0  0  0
112114  2  0  0  0  0
104115  1  0  0  0  0
115116  2  0  0  0  0
116117  1  0  0  0  0
117118  1  0  0  0  0
118119  2  0  0  0  0
119120  1  0  0  0  0
120121  2  0  0  0  0
121122  1  0  0  0  0
122123  1  0  0  0  0
123124  1  0  0  0  0
121125  1  0  0  0  0
125126  2  0  0  0  0
125127  1  0  0  0  0
117128  2  0  0  0  0
128129  1  0  0  0  0
116130  1  0  0  0  0
130131  2  0  0  0  0
131132  1  0  0  0  0
 29  1  1  0  0  0  0
 37 33  2  0  0  0  0
 49 45  2  0  0  0  0
 61 57  2  0  0  0  0
 97 69  1  0  0  0  0
129101  1  0  0  0  0
 28  3  1  0  0  0  0
 42 36  1  0  0  0  0
 54 48  1  0  0  0  0
 66 60  1  0  0  0  0
 96 71  1  0  0  0  0
128103  1  0  0  0  0
 14  5  1  0  0  0  0
 32 15  1  0  0  0  0
 82 73  1  0  0  0  0
100 83  1  0  0  0  0
114105  1  0  0  0  0
132115  1  0  0  0  0
 26 18  1  0  0  0  0
 94 86  1  0  0  0  0
126118  1  0  0  0  0
  1133  1  0  0  0  0
  2134  1  0  0  0  0
  6135  1  0  0  0  0
  7136  1  0  0  0  0
 10137  1  0  0  0  0
 10138  1  0  0  0  0
 11139  1  0  0  0  0
 11140  1  0  0  0  0
 11141  1  0  0  0  0
 14142  1  0  0  0  0
 19143  1  0  0  0  0
 20144  1  0  0  0  0
 23145  1  0  0  0  0
 23146  1  0  0  0  0
 24147  1  0  0  0  0
 24148  1  0  0  0  0
 24149  1  0  0  0  0
 26150  1  0  0  0  0
 30151  1  0  0  0  0
 39152  1  0  0  0  0
 39153  1  0  0  0  0
 40154  1  0  0  0  0
 40155  1  0  0  0  0
 41156  1  0  0  0  0
 41157  1  0  0  0  0
 43158  1  0  0  0  0
 44159  1  0  0  0  0
 51160  1  0  0  0  0
 51161  1  0  0  0  0
 52162  1  0  0  0  0
 52163  1  0  0  0  0
 53164  1  0  0  0  0
 53165  1  0  0  0  0
 55166  1  0  0  0  0
 56167  1  0  0  0  0
 63168  1  0  0  0  0
 63169  1  0  0  0  0
 64170  1  0  0  0  0
 64171  1  0  0  0  0
 65172  1  0  0  0  0
 65173  1  0  0  0  0
 67174  1  0  0  0  0
 68175  1  0  0  0  0
 70176  1  0  0  0  0
 74177  1  0  0  0  0
 75178  1  0  0  0  0
 78179  1  0  0  0  0
 78180  1  0  0  0  0
 79181  1  0  0  0  0
 79182  1  0  0  0  0
 79183  1  0  0  0  0
 82184  1  0  0  0  0
 87185  1  0  0  0  0
 88186  1  0  0  0  0
 91187  1  0  0  0  0
 91188  1  0  0  0  0
 92189  1  0  0  0  0
 92190  1  0  0  0  0
 92191  1  0  0  0  0
 94192  1  0  0  0  0
 98193  1  0  0  0  0
102194  1  0  0  0  0
106195  1  0  0  0  0
107196  1  0  0  0  0
110197  1  0  0  0  0
110198  1  0  0  0  0
111199  1  0  0  0  0
111200  1  0  0  0  0
111201  1  0  0  0  0
114202  1  0  0  0  0
119203  1  0  0  0  0
120204  1  0  0  0  0
123205  1  0  0  0  0
123206  1  0  0  0  0
124207  1  0  0  0  0
124208  1  0  0  0  0
124209  1  0  0  0  0
126210  1  0  0  0  0
130211  1  0  0  0  0
131212  1  0  0  0  0
M  END
