
  xtb     02282216003D
 energy: -180.428157783608 gnorm: 0.000818333658 xtb: 6.4.1 (unknown)
 83 91  0     0  0            999 V2000
    5.9602    4.8072    6.0259 C   0  0  0  0  0  0  0  0  0  0  0  0
    4.3732    4.2903    6.4475 S   0  0  0  0  0  0  0  0  0  0  0  0
    4.1864    3.4035    4.9512 C   0  0  0  0  0  0  0  0  0  0  0  0
    5.3294    3.5208    4.1728 C   0  0  0  0  0  0  0  0  0  0  0  0
    5.7194    3.0228    2.8989 C   0  0  0  0  0  0  0  0  0  0  0  0
    6.9591    3.3834    2.4923 C   0  0  0  0  0  0  0  0  0  0  0  0
    7.6264    2.9953    1.2177 C   0  0  0  0  0  0  0  0  0  0  0  0
    8.1152    4.2141    0.4381 C   0  0  0  0  0  0  0  0  0  0  0  0
    7.8687    4.4887    3.7542 Se  0  0  0  0  0  2  0  0  0  0  0  0
    6.3253    4.3260    4.8085 C   0  0  0  0  0  0  0  0  0  0  0  0
    2.9856    2.7080    4.6924 C   0  0  0  0  0  0  0  0  0  0  0  0
    2.7371    1.7877    3.2342 S   0  0  0  0  0  0  0  0  0  0  0  0
    1.1204    1.2959    3.7049 C   0  0  0  0  0  0  0  0  0  0  0  0
    0.7918    1.8490    4.9402 C   0  0  0  0  0  0  0  0  0  0  0  0
   -0.3788    1.8519    5.7496 C   0  0  0  0  0  0  0  0  0  0  0  0
   -0.2891    2.5557    6.9016 C   0  0  0  0  0  0  0  0  0  0  0  0
   -1.3526    2.7086    7.9354 C   0  0  0  0  0  0  0  0  0  0  0  0
   -1.6177    4.1764    8.2618 C   0  0  0  0  0  0  0  0  0  0  0  0
    1.4051    3.3913    7.1261 Se  0  0  0  0  0  2  0  0  0  0  0  0
    1.8515    2.6280    5.4793 C   0  0  0  0  0  0  0  0  0  0  0  0
    0.4174    0.4621    2.8091 C   0  0  0  0  0  0  0  0  0  0  0  0
    1.0131    0.3736    1.1655 S   0  0  0  0  0  0  0  0  0  0  0  0
   -0.2045   -0.7880    0.6884 C   0  0  0  0  0  0  0  0  0  0  0  0
   -1.0275   -1.0935    1.7785 C   0  0  0  0  0  0  0  0  0  0  0  0
   -2.0918   -2.0222    1.9417 C   0  0  0  0  0  0  0  0  0  0  0  0
   -2.5934   -2.1110    3.1943 C   0  0  0  0  0  0  0  0  0  0  0  0
   -3.6765   -3.0083    3.6882 C   0  0  0  0  0  0  0  0  0  0  0  0
   -4.4838   -3.6601    2.5720 C   0  0  0  0  0  0  0  0  0  0  0  0
   -1.7460   -0.9202    4.4006 Se  0  0  0  0  0  2  0  0  0  0  0  0
   -0.6747   -0.3817    2.9549 C   0  0  0  0  0  0  0  0  0  0  0  0
   -0.2729   -1.2892   -0.6203 C   0  0  0  0  0  0  0  0  0  0  0  0
   -1.6160   -2.2630   -1.1364 S   0  0  0  0  0  0  0  0  0  0  0  0
   -0.9680   -2.4556   -2.7464 C   0  0  0  0  0  0  0  0  0  0  0  0
    0.2429   -1.7905   -2.8565 C   0  0  0  0  0  0  0  0  0  0  0  0
    0.6376   -1.1248   -1.6771 C   0  0  0  0  0  0  0  0  0  0  0  0
    1.8190   -0.3743   -1.5497 C   0  0  0  0  0  0  0  0  0  0  0  0
    2.7768    0.2469   -1.4329 N   0  0  0  0  0  0  0  0  0  0  0  0
    1.0929   -1.8369   -4.0880 C   0  0  0  0  0  0  0  0  0  0  0  0
    0.6153   -1.0559   -5.0752 F   0  0  0  0  0  0  0  0  0  0  0  0
    1.1631   -3.0856   -4.5975 F   0  0  0  0  0  0  0  0  0  0  0  0
    2.3538   -1.4592   -3.8823 F   0  0  0  0  0  0  0  0  0  0  0  0
   -1.7189   -3.1929   -3.7047 C   0  0  0  0  0  0  0  0  0  0  0  0
   -1.5926   -2.9197   -5.4119 S   0  0  0  0  0  0  0  0  0  0  0  0
   -2.8080   -4.1117   -5.7591 C   0  0  0  0  0  0  0  0  0  0  0  0
   -3.2986   -4.6725   -4.5986 C   0  0  0  0  0  0  0  0  0  0  0  0
   -2.6909   -4.1567   -3.4284 C   0  0  0  0  0  0  0  0  0  0  0  0
   -2.9853   -4.6155   -2.1311 C   0  0  0  0  0  0  0  0  0  0  0  0
   -3.2081   -5.0020   -1.0742 N   0  0  0  0  0  0  0  0  0  0  0  0
   -4.3994   -5.6866   -4.5708 C   0  0  0  0  0  0  0  0  0  0  0  0
   -3.9591   -6.9318   -4.8382 F   0  0  0  0  0  0  0  0  0  0  0  0
   -5.3495   -5.4223   -5.4888 F   0  0  0  0  0  0  0  0  0  0  0  0
   -5.0298   -5.7499   -3.3978 F   0  0  0  0  0  0  0  0  0  0  0  0
   -3.1298   -4.4077   -7.1258 C   0  0  0  0  0  0  0  0  0  0  0  0
   -3.4507   -6.0184   -7.6870 S   0  0  0  0  0  0  0  0  0  0  0  0
   -3.6340   -5.4775   -9.2963 C   0  0  0  0  0  0  0  0  0  0  0  0
   -3.4579   -4.1323   -9.4153 C   0  0  0  0  0  0  0  0  0  0  0  0
   -3.1593   -3.5038   -8.1752 C   0  0  0  0  0  0  0  0  0  0  0  0
   -2.9878   -2.1135   -8.0320 C   0  0  0  0  0  0  0  0  0  0  0  0
   -2.8789   -0.9788   -7.9174 N   0  0  0  0  0  0  0  0  0  0  0  0
   -3.5689   -3.3762  -10.7009 C   0  0  0  0  0  0  0  0  0  0  0  0
   -2.4446   -2.7082  -10.9971 F   0  0  0  0  0  0  0  0  0  0  0  0
   -4.5597   -2.4720  -10.6762 F   0  0  0  0  0  0  0  0  0  0  0  0
   -3.8176   -4.1896  -11.7376 F   0  0  0  0  0  0  0  0  0  0  0  0
    6.5125    5.4266    6.7038 H   0  0  0  0  0  0  0  0  0  0  0  0
    5.0778    2.4029    2.2966 H   0  0  0  0  0  0  0  0  0  0  0  0
    6.9216    2.4209    0.6132 H   0  0  0  0  0  0  0  0  0  0  0  0
    8.4823    2.3510    1.4431 H   0  0  0  0  0  0  0  0  0  0  0  0
    8.6043    3.9041   -0.4814 H   0  0  0  0  0  0  0  0  0  0  0  0
    7.2801    4.8641    0.1878 H   0  0  0  0  0  0  0  0  0  0  0  0
    8.8287    4.7813    1.0377 H   0  0  0  0  0  0  0  0  0  0  0  0
   -1.2873    1.3503    5.4572 H   0  0  0  0  0  0  0  0  0  0  0  0
   -1.0403    2.1917    8.8483 H   0  0  0  0  0  0  0  0  0  0  0  0
   -2.2656    2.2302    7.5745 H   0  0  0  0  0  0  0  0  0  0  0  0
   -2.3880    4.2640    9.0235 H   0  0  0  0  0  0  0  0  0  0  0  0
   -1.9427    4.7108    7.3720 H   0  0  0  0  0  0  0  0  0  0  0  0
   -0.7059    4.6463    8.6336 H   0  0  0  0  0  0  0  0  0  0  0  0
   -2.4600   -2.6304    1.1362 H   0  0  0  0  0  0  0  0  0  0  0  0
   -3.2250   -3.7863    4.3139 H   0  0  0  0  0  0  0  0  0  0  0  0
   -4.3426   -2.4290    4.3373 H   0  0  0  0  0  0  0  0  0  0  0  0
   -5.2868   -4.2547    3.0000 H   0  0  0  0  0  0  0  0  0  0  0  0
   -3.8615   -4.3139    1.9674 H   0  0  0  0  0  0  0  0  0  0  0  0
   -4.9220   -2.9042    1.9251 H   0  0  0  0  0  0  0  0  0  0  0  0
   -3.8665   -6.1720  -10.0796 H   0  0  0  0  0  0  0  0  0  0  0  0
  1  2  1  0  0  0  0
  2  3  1  0  0  0  0
  3  4  2  0  0  0  0
  4  5  1  0  0  0  0
  5  6  2  0  0  0  0
  6  7  1  0  0  0  0
  7  8  1  0  0  0  0
  6  9  1  0  0  0  0
  9 10  1  0  0  0  0
  3 11  1  0  0  0  0
 11 12  1  0  0  0  0
 12 13  1  0  0  0  0
 13 14  2  0  0  0  0
 14 15  1  0  0  0  0
 15 16  2  0  0  0  0
 16 17  1  0  0  0  0
 17 18  1  0  0  0  0
 16 19  1  0  0  0  0
 19 20  1  0  0  0  0
 13 21  1  0  0  0  0
 21 22  1  0  0  0  0
 22 23  1  0  0  0  0
 23 24  2  0  0  0  0
 24 25  1  0  0  0  0
 25 26  2  0  0  0  0
 26 27  1  0  0  0  0
 27 28  1  0  0  0  0
 26 29  1  0  0  0  0
 29 30  1  0  0  0  0
 23 31  1  0  0  0  0
 31 32  1  0  0  0  0
 32 33  1  0  0  0  0
 33 34  2  0  0  0  0
 34 35  1  0  0  0  0
 35 36  1  0  0  0  0
 36 37  3  0  0  0  0
 34 38  1  0  0  0  0
 38 39  1  0  0  0  0
 38 40  1  0  0  0  0
 38 41  1  0  0  0  0
 33 42  1  0  0  0  0
 42 43  1  0  0  0  0
 43 44  1  0  0  0  0
 44 45  2  0  0  0  0
 45 46  1  0  0  0  0
 46 47  1  0  0  0  0
 47 48  3  0  0  0  0
 45 49  1  0  0  0  0
 49 50  1  0  0  0  0
 49 51  1  0  0  0  0
 49 52  1  0  0  0  0
 44 53  1  0  0  0  0
 53 54  1  0  0  0  0
 54 55  1  0  0  0  0
 55 56  2  0  0  0  0
 56 57  1  0  0  0  0
 57 58  1  0  0  0  0
 58 59  3  0  0  0  0
 56 60  1  0  0  0  0
 60 61  1  0  0  0  0
 60 62  1  0  0  0  0
 60 63  1  0  0  0  0
 10  1  2  0  0  0  0
 20 11  2  0  0  0  0
 30 21  2  0  0  0  0
 35 31  2  0  0  0  0
 46 42  2  0  0  0  0
 57 53  2  0  0  0  0
 10  4  1  0  0  0  0
 20 14  1  0  0  0  0
 30 24  1  0  0  0  0
  1 64  1  0  0  0  0
  5 65  1  0  0  0  0
  7 66  1  0  0  0  0
  7 67  1  0  0  0  0
  8 68  1  0  0  0  0
  8 69  1  0  0  0  0
  8 70  1  0  0  0  0
 15 71  1  0  0  0  0
 17 72  1  0  0  0  0
 17 73  1  0  0  0  0
 18 74  1  0  0  0  0
 18 75  1  0  0  0  0
 18 76  1  0  0  0  0
 25 77  1  0  0  0  0
 27 78  1  0  0  0  0
 27 79  1  0  0  0  0
 28 80  1  0  0  0  0
 28 81  1  0  0  0  0
 28 82  1  0  0  0  0
 55 83  1  0  0  0  0
M  END
