
  xtb     02282217463D
 energy: -151.719533630157 gnorm: 0.000833075996 xtb: 6.4.1 (unknown)
 62 67  0     0  0            999 V2000
    6.9807    6.8985  -12.4896 C   0  0  0  0  0  0  0  0  0  0  0  0
    6.2914    7.8329  -11.2260 S   0  0  0  0  0  0  0  0  0  0  0  0
    5.8666    6.3812  -10.3533 C   0  0  0  0  0  0  0  0  0  0  0  0
    6.2566    5.2586  -11.0418 C   0  0  0  0  0  0  0  0  0  0  0  0
    6.8915    5.5605  -12.2586 C   0  0  0  0  0  0  0  0  0  0  0  0
    5.2239    6.4506   -9.1263 C   0  0  0  0  0  0  0  0  0  0  0  0
    4.6663    6.5635   -8.0540 C   0  0  0  0  0  0  0  0  0  0  0  0
    4.0429    6.6507   -6.8195 C   0  0  0  0  0  0  0  0  0  0  0  0
    3.5050    5.2224   -5.9798 S   0  0  0  0  0  0  0  0  0  0  0  0
    2.9287    6.1973   -4.6510 C   0  0  0  0  0  0  0  0  0  0  0  0
    3.1498    7.5407   -4.8778 C   0  0  0  0  0  0  0  0  0  0  0  0
    3.7739    7.7955   -6.0974 C   0  0  0  0  0  0  0  0  0  0  0  0
    2.3458    5.6142   -3.5410 C   0  0  0  0  0  0  0  0  0  0  0  0
    1.8458    5.1047   -2.5573 C   0  0  0  0  0  0  0  0  0  0  0  0
    1.2865    4.5343   -1.4284 C   0  0  0  0  0  0  0  0  0  0  0  0
    0.8692    2.8457   -1.3867 S   0  0  0  0  0  0  0  0  0  0  0  0
    0.3180    3.0058    0.2623 C   0  0  0  0  0  0  0  0  0  0  0  0
    0.4591    4.3041    0.7219 C   0  0  0  0  0  0  0  0  0  0  0  0
    0.9994    5.1618   -0.2282 C   0  0  0  0  0  0  0  0  0  0  0  0
   -0.1831    1.9316    0.9632 C   0  0  0  0  0  0  0  0  0  0  0  0
   -0.6366    0.9938    1.5931 C   0  0  0  0  0  0  0  0  0  0  0  0
   -1.1481   -0.0263    2.3646 C   0  0  0  0  0  0  0  0  0  0  0  0
   -1.5128   -1.5955    1.7280 S   0  0  0  0  0  0  0  0  0  0  0  0
   -2.0815   -2.1513    3.2830 C   0  0  0  0  0  0  0  0  0  0  0  0
   -1.9643   -1.1546    4.2382 C   0  0  0  0  0  0  0  0  0  0  0  0
   -1.4404    0.0512    3.7273 C   0  0  0  0  0  0  0  0  0  0  0  0
   -1.2250    1.2480    4.4355 C   0  0  0  0  0  0  0  0  0  0  0  0
   -1.0432    2.2541    4.9528 N   0  0  0  0  0  0  0  0  0  0  0  0
   -2.2975   -1.3384    5.6877 C   0  0  0  0  0  0  0  0  0  0  0  0
   -1.7541   -0.4052    6.4674 F   0  0  0  0  0  0  0  0  0  0  0  0
   -3.6260   -1.3029    5.9122 F   0  0  0  0  0  0  0  0  0  0  0  0
   -1.8614   -2.5228    6.1539 F   0  0  0  0  0  0  0  0  0  0  0  0
   -2.6365   -3.4637    3.4048 C   0  0  0  0  0  0  0  0  0  0  0  0
   -3.8859   -3.8328    4.5460 S   0  0  0  0  0  0  0  0  0  0  0  0
   -4.0120   -5.4679    3.9797 C   0  0  0  0  0  0  0  0  0  0  0  0
   -3.1139   -5.7099    2.9600 C   0  0  0  0  0  0  0  0  0  0  0  0
   -2.3385   -4.5740    2.6198 C   0  0  0  0  0  0  0  0  0  0  0  0
   -1.3497   -4.5639    1.6163 C   0  0  0  0  0  0  0  0  0  0  0  0
   -0.5428   -4.5399    0.8029 N   0  0  0  0  0  0  0  0  0  0  0  0
   -2.9394   -7.0460    2.3056 C   0  0  0  0  0  0  0  0  0  0  0  0
   -1.7727   -7.1797    1.6782 F   0  0  0  0  0  0  0  0  0  0  0  0
   -3.8987   -7.2913    1.3896 F   0  0  0  0  0  0  0  0  0  0  0  0
   -3.0052   -8.0544    3.1947 F   0  0  0  0  0  0  0  0  0  0  0  0
   -4.9992   -6.3328    4.5609 C   0  0  0  0  0  0  0  0  0  0  0  0
   -5.8572   -7.5283    3.6403 S   0  0  0  0  0  0  0  0  0  0  0  0
   -6.7991   -7.9713    4.9924 C   0  0  0  0  0  0  0  0  0  0  0  0
   -6.4864   -7.2469    6.1028 C   0  0  0  0  0  0  0  0  0  0  0  0
   -5.4584   -6.2933    5.8679 C   0  0  0  0  0  0  0  0  0  0  0  0
   -4.9476   -5.4546    6.8784 C   0  0  0  0  0  0  0  0  0  0  0  0
   -4.5413   -4.7928    7.7202 N   0  0  0  0  0  0  0  0  0  0  0  0
   -7.1456   -7.4180    7.4352 C   0  0  0  0  0  0  0  0  0  0  0  0
   -8.0991   -8.3602    7.3998 F   0  0  0  0  0  0  0  0  0  0  0  0
   -6.2791   -7.7818    8.3904 F   0  0  0  0  0  0  0  0  0  0  0  0
   -7.7359   -6.2896    7.8563 F   0  0  0  0  0  0  0  0  0  0  0  0
    7.4132    7.3989  -13.3332 H   0  0  0  0  0  0  0  0  0  0  0  0
    6.0883    4.2623  -10.6744 H   0  0  0  0  0  0  0  0  0  0  0  0
    7.2679    4.8149  -12.9357 H   0  0  0  0  0  0  0  0  0  0  0  0
    2.8618    8.3002   -4.1730 H   0  0  0  0  0  0  0  0  0  0  0  0
    4.0307    8.7764   -6.4551 H   0  0  0  0  0  0  0  0  0  0  0  0
    0.1729    4.5936    1.7171 H   0  0  0  0  0  0  0  0  0  0  0  0
    1.1885    6.2076   -0.0661 H   0  0  0  0  0  0  0  0  0  0  0  0
   -7.5371   -8.7452    4.9113 H   0  0  0  0  0  0  0  0  0  0  0  0
  1  2  1  0  0  0  0
  2  3  1  0  0  0  0
  3  4  2  0  0  0  0
  4  5  1  0  0  0  0
  3  6  1  0  0  0  0
  6  7  3  0  0  0  0
  7  8  1  0  0  0  0
  8  9  1  0  0  0  0
  9 10  1  0  0  0  0
 10 11  2  0  0  0  0
 11 12  1  0  0  0  0
 10 13  1  0  0  0  0
 13 14  3  0  0  0  0
 14 15  1  0  0  0  0
 15 16  1  0  0  0  0
 16 17  1  0  0  0  0
 17 18  2  0  0  0  0
 18 19  1  0  0  0  0
 17 20  1  0  0  0  0
 20 21  3  0  0  0  0
 21 22  1  0  0  0  0
 22 23  1  0  0  0  0
 23 24  1  0  0  0  0
 24 25  2  0  0  0  0
 25 26  1  0  0  0  0
 26 27  1  0  0  0  0
 27 28  3  0  0  0  0
 25 29  1  0  0  0  0
 29 30  1  0  0  0  0
 29 31  1  0  0  0  0
 29 32  1  0  0  0  0
 24 33  1  0  0  0  0
 33 34  1  0  0  0  0
 34 35  1  0  0  0  0
 35 36  2  0  0  0  0
 36 37  1  0  0  0  0
 37 38  1  0  0  0  0
 38 39  3  0  0  0  0
 36 40  1  0  0  0  0
 40 41  1  0  0  0  0
 40 42  1  0  0  0  0
 40 43  1  0  0  0  0
 35 44  1  0  0  0  0
 44 45  1  0  0  0  0
 45 46  1  0  0  0  0
 46 47  2  0  0  0  0
 47 48  1  0  0  0  0
 48 49  1  0  0  0  0
 49 50  3  0  0  0  0
 47 51  1  0  0  0  0
 51 52  1  0  0  0  0
 51 53  1  0  0  0  0
 51 54  1  0  0  0  0
  5  1  2  0  0  0  0
 12  8  2  0  0  0  0
 19 15  2  0  0  0  0
 26 22  2  0  0  0  0
 37 33  2  0  0  0  0
 48 44  2  0  0  0  0
  1 55  1  0  0  0  0
  4 56  1  0  0  0  0
  5 57  1  0  0  0  0
 11 58  1  0  0  0  0
 12 59  1  0  0  0  0
 18 60  1  0  0  0  0
 19 61  1  0  0  0  0
 46 62  1  0  0  0  0
M  END
