62

C          6.98070        6.89850      -12.48960
S          6.29140        7.83290      -11.22600
C          5.86660        6.38120      -10.35330
C          6.25660        5.25860      -11.04180
C          6.89150        5.56050      -12.25860
C          5.22390        6.45060       -9.12630
C          4.66630        6.56350       -8.05400
C          4.04290        6.65070       -6.81950
S          3.50500        5.22240       -5.97980
C          2.92870        6.19730       -4.65100
C          3.14980        7.54070       -4.87780
C          3.77390        7.79550       -6.09740
C          2.34580        5.61420       -3.54100
C          1.84580        5.10470       -2.55730
C          1.28650        4.53430       -1.42840
S          0.86920        2.84570       -1.38670
C          0.31800        3.00580        0.26230
C          0.45910        4.30410        0.72190
C          0.99940        5.16180       -0.22820
C         -0.18310        1.93160        0.96320
C         -0.63660        0.99380        1.59310
C         -1.14810       -0.02630        2.36460
S         -1.51280       -1.59550        1.72800
C         -2.08150       -2.15130        3.28300
C         -1.96430       -1.15460        4.23820
C         -1.44040        0.05120        3.72730
C         -1.22500        1.24800        4.43550
N         -1.04320        2.25410        4.95280
C         -2.29750       -1.33840        5.68770
F         -1.75410       -0.40520        6.46740
F         -3.62600       -1.30290        5.91220
F         -1.86140       -2.52280        6.15390
C         -2.63650       -3.46370        3.40480
S         -3.88590       -3.83280        4.54600
C         -4.01200       -5.46790        3.97970
C         -3.11390       -5.70990        2.96000
C         -2.33850       -4.57400        2.61980
C         -1.34970       -4.56390        1.61630
N         -0.54280       -4.53990        0.80290
C         -2.93940       -7.04600        2.30560
F         -1.77270       -7.17970        1.67820
F         -3.89870       -7.29130        1.38960
F         -3.00520       -8.05440        3.19470
C         -4.99920       -6.33280        4.56090
S         -5.85720       -7.52830        3.64030
C         -6.79910       -7.97130        4.99240
C         -6.48640       -7.24690        6.10280
C         -5.45840       -6.29330        5.86790
C         -4.94760       -5.45460        6.87840
N         -4.54130       -4.79280        7.72020
C         -7.14560       -7.41800        7.43520
F         -8.09910       -8.36020        7.39980
F         -6.27910       -7.78180        8.39040
F         -7.73590       -6.28960        7.85630
H          7.41320        7.39890      -13.33320
H          6.08830        4.26230      -10.67440
H          7.26790        4.81490      -12.93570
H          2.86180        8.30020       -4.17300
H          4.03070        8.77640       -6.45510
H          0.17290        4.59360        1.71710
H          1.18850        6.20760       -0.06610
H         -7.53710       -8.74520        4.91130
