89

C          1.86380       -0.66820       -3.61460
N          1.19300       -1.46400       -2.74560
C          1.84260       -2.43530       -1.90520
C          2.26000       -1.83910       -0.56000
C         -0.15430       -1.23370       -2.88220
C         -0.30580       -0.26010       -3.86500
C          0.96580        0.09880       -4.31600
C         -1.24170       -1.83340       -2.17480
C         -1.26590       -2.44240       -0.97000
C         -2.48590       -2.86520       -0.34720
N         -2.60530       -3.05050        1.00750
C         -1.50210       -3.20640        1.92340
C         -0.82960       -4.56780        1.75150
C         -3.91700       -3.32240        1.31110
C         -4.62870       -3.36220        0.11870
C         -3.74600       -3.04580       -0.90880
C         -4.46450       -3.37980        2.64090
C         -4.26850       -2.46810        3.62080
C         -3.60420       -1.21140        3.49100
S         -3.16650       -0.51500        1.96380
C         -2.55600        0.94080        2.70440
C         -2.72450        0.88890        4.06990
C         -3.31750       -0.32120        4.52020
C         -3.56270       -0.64590        5.86540
N         -3.76390       -0.95900        6.95010
C         -2.34670        1.99620        4.99680
F         -2.43160        3.20480        4.41390
F         -1.07670        1.88650        5.44390
F         -3.12330        2.05250        6.08400
C         -1.78610        1.86020        1.91510
N         -2.03140        2.14380        0.60220
C         -3.26550        1.90500       -0.10600
C         -3.13470        0.82930       -1.17870
C         -0.95040        2.80570        0.07810
C         -0.02860        2.98840        1.10500
C         -0.55090        2.40820        2.25280
C         -0.91590        3.23130       -1.28870
C          0.12800        3.26070       -2.14770
C          1.45660        2.76660       -2.00770
S          2.11990        1.96370       -0.62650
C          3.65420        1.70520       -1.41340
C          3.64240        2.21830       -2.68770
C          2.40150        2.81040       -3.03050
C          2.13430        3.38960       -4.28460
N          1.89160        3.85800       -5.30210
C          4.80460        2.26810       -3.63050
F          4.94100        3.48460       -4.17850
F          5.97680        2.00540       -3.02800
F          4.68430        1.39920       -4.64150
C          4.71310        1.06920       -0.67310
S          5.09670        1.60340        0.93390
C          6.31940        0.41930        1.09410
C          6.43290       -0.35680       -0.01770
C          5.51110        0.00350       -1.04090
C          5.35720       -0.72040       -2.23800
N          5.17480       -1.34140       -3.18290
C          7.38250       -1.50340       -0.15970
F          8.17880       -1.38710       -1.22760
F          8.17870       -1.62820        0.91120
F          6.73060       -2.67350       -0.28880
H          2.93070       -0.72670       -3.70600
H          2.73570       -2.79270       -2.42590
H          1.16730       -3.28190       -1.76060
H          3.02650       -1.08510       -0.71330
H          1.41820       -1.36330       -0.06090
H          2.66460       -2.61620        0.08280
H         -1.24170        0.13910       -4.20490
H          1.20170        0.81740       -5.07580
H         -2.18810       -1.69020       -2.67960
H         -0.36630       -2.54770       -0.38770
H         -1.88220       -3.12330        2.94310
H         -0.78060       -2.39930        1.76420
H          0.00200       -4.66040        2.44480
H         -0.45750       -4.69350        0.73780
H         -1.54250       -5.36320        1.95520
H         -5.68210       -3.54090        0.03030
H         -3.98760       -2.96930       -1.94980
H         -5.15140       -4.19320        2.83470
H         -4.69810       -2.64670        4.59810
H         -4.02710        1.61610        0.62110
H         -3.58650        2.84710       -0.56370
H         -4.07400        0.73660       -1.71620
H         -2.34810        1.08370       -1.88450
H         -2.89710       -0.13140       -0.73190
H          0.88610        3.54170        1.04150
H         -0.07960        2.36040        3.21310
H         -1.86630        3.55580       -1.69510
H         -0.05920        3.66290       -3.13610
H          6.89530        0.34890        1.99590
