
  xtb     02282218433D
 energy: -180.420851671797 gnorm: 0.000559777881 xtb: 6.4.1 (unknown)
 83 91  0     0  0            999 V2000
   -6.8265    4.2759   -6.1561 C   0  0  0  0  0  0  0  0  0  0  0  0
   -5.1516    4.6562   -6.2705 S   0  0  0  0  0  0  0  0  0  0  0  0
   -4.7731    3.7415   -4.8289 C   0  0  0  0  0  0  0  0  0  0  0  0
   -5.9225    3.1738   -4.2984 C   0  0  0  0  0  0  0  0  0  0  0  0
   -6.1907    2.3576   -3.1642 C   0  0  0  0  0  0  0  0  0  0  0  0
   -7.4874    2.0133   -2.9953 C   0  0  0  0  0  0  0  0  0  0  0  0
   -8.0883    1.1795   -1.9145 C   0  0  0  0  0  0  0  0  0  0  0  0
   -7.0758    0.6700   -0.8965 C   0  0  0  0  0  0  0  0  0  0  0  0
   -8.6341    2.7255   -4.3488 Se  0  0  0  0  0  2  0  0  0  0  0  0
   -7.0801    3.4934   -5.0739 C   0  0  0  0  0  0  0  0  0  0  0  0
   -3.4404    3.6690   -4.3671 C   0  0  0  0  0  0  0  0  0  0  0  0
   -3.0051    2.7699   -2.9412 S   0  0  0  0  0  0  0  0  0  0  0  0
   -1.3129    3.2163   -3.0652 C   0  0  0  0  0  0  0  0  0  0  0  0
   -1.1002    3.9983   -4.1972 C   0  0  0  0  0  0  0  0  0  0  0  0
    0.0549    4.5351   -4.8305 C   0  0  0  0  0  0  0  0  0  0  0  0
   -0.1823    5.2313   -5.9678 C   0  0  0  0  0  0  0  0  0  0  0  0
    0.8347    5.9385   -6.7966 C   0  0  0  0  0  0  0  0  0  0  0  0
    0.5676    5.7910   -8.2907 C   0  0  0  0  0  0  0  0  0  0  0  0
   -2.0237    5.2766   -6.4400 Se  0  0  0  0  0  2  0  0  0  0  0  0
   -2.3070    4.2471   -4.9081 C   0  0  0  0  0  0  0  0  0  0  0  0
   -0.4481    2.7224   -2.0642 C   0  0  0  0  0  0  0  0  0  0  0  0
   -0.8973    1.2644   -1.2325 S   0  0  0  0  0  0  0  0  0  0  0  0
    0.5114    1.3245   -0.2056 C   0  0  0  0  0  0  0  0  0  0  0  0
    1.2781    2.4372   -0.5070 C   0  0  0  0  0  0  0  0  0  0  0  0
    0.7429    3.2365   -1.5452 C   0  0  0  0  0  0  0  0  0  0  0  0
    1.2659    4.4793   -1.9417 C   0  0  0  0  0  0  0  0  0  0  0  0
    1.6579    5.5067   -2.2679 N   0  0  0  0  0  0  0  0  0  0  0  0
    2.5258    2.7987    0.2403 C   0  0  0  0  0  0  0  0  0  0  0  0
    2.3586    2.6948    1.5708 F   0  0  0  0  0  0  0  0  0  0  0  0
    3.5568    1.9907   -0.0839 F   0  0  0  0  0  0  0  0  0  0  0  0
    2.9434    4.0432    0.0141 F   0  0  0  0  0  0  0  0  0  0  0  0
    0.7288    0.2745    0.7369 C   0  0  0  0  0  0  0  0  0  0  0  0
    2.3099   -0.1770    1.2861 S   0  0  0  0  0  0  0  0  0  0  0  0
    1.6812   -1.4824    2.2428 C   0  0  0  0  0  0  0  0  0  0  0  0
    0.3034   -1.5479    2.1444 C   0  0  0  0  0  0  0  0  0  0  0  0
   -0.2416   -0.5632    1.2838 C   0  0  0  0  0  0  0  0  0  0  0  0
   -1.6191   -0.4274    1.0250 C   0  0  0  0  0  0  0  0  0  0  0  0
   -2.7400   -0.3154    0.8088 N   0  0  0  0  0  0  0  0  0  0  0  0
   -0.5412   -2.5196    2.9084 C   0  0  0  0  0  0  0  0  0  0  0  0
   -0.1091   -2.6856    4.1719 F   0  0  0  0  0  0  0  0  0  0  0  0
   -1.8186   -2.1495    3.0053 F   0  0  0  0  0  0  0  0  0  0  0  0
   -0.5487   -3.7503    2.3505 F   0  0  0  0  0  0  0  0  0  0  0  0
    2.5796   -2.3506    2.9374 C   0  0  0  0  0  0  0  0  0  0  0  0
    2.2326   -4.0382    3.1354 S   0  0  0  0  0  0  0  0  0  0  0  0
    3.7443   -4.3369    3.9352 C   0  0  0  0  0  0  0  0  0  0  0  0
    4.4817   -3.1646    4.0317 C   0  0  0  0  0  0  0  0  0  0  0  0
    3.8294   -2.0449    3.4596 C   0  0  0  0  0  0  0  0  0  0  0  0
    4.3372   -0.7289    3.4591 C   0  0  0  0  0  0  0  0  0  0  0  0
    4.7153    0.3526    3.4587 N   0  0  0  0  0  0  0  0  0  0  0  0
    5.8274   -3.0859    4.6772 C   0  0  0  0  0  0  0  0  0  0  0  0
    6.3502   -1.8599    4.6776 F   0  0  0  0  0  0  0  0  0  0  0  0
    5.7998   -3.4800    5.9661 F   0  0  0  0  0  0  0  0  0  0  0  0
    6.7328   -3.8753    4.0620 F   0  0  0  0  0  0  0  0  0  0  0  0
    3.9932   -5.6673    4.3595 C   0  0  0  0  0  0  0  0  0  0  0  0
    5.4556   -6.2227    5.1427 S   0  0  0  0  0  0  0  0  0  0  0  0
    4.8702   -7.8251    5.2576 C   0  0  0  0  0  0  0  0  0  0  0  0
    3.6151   -7.9658    4.7300 C   0  0  0  0  0  0  0  0  0  0  0  0
    2.7106   -9.0649    4.5863 C   0  0  0  0  0  0  0  0  0  0  0  0
    1.5388   -8.7648    3.9912 C   0  0  0  0  0  0  0  0  0  0  0  0
    0.4214   -9.7025    3.6759 C   0  0  0  0  0  0  0  0  0  0  0  0
   -0.9440   -9.0596    3.8961 C   0  0  0  0  0  0  0  0  0  0  0  0
    1.4074   -6.9123    3.5050 Se  0  0  0  0  0  2  0  0  0  0  0  0
    3.1190   -6.7315    4.2160 C   0  0  0  0  0  0  0  0  0  0  0  0
   -7.5066    4.6553   -6.8921 H   0  0  0  0  0  0  0  0  0  0  0  0
   -5.4155    2.0394   -2.4908 H   0  0  0  0  0  0  0  0  0  0  0  0
   -8.6047    0.3307   -2.3768 H   0  0  0  0  0  0  0  0  0  0  0  0
   -8.8552    1.7733   -1.4045 H   0  0  0  0  0  0  0  0  0  0  0  0
   -6.3228    0.0494   -1.3752 H   0  0  0  0  0  0  0  0  0  0  0  0
   -6.5783    1.4980   -0.3981 H   0  0  0  0  0  0  0  0  0  0  0  0
   -7.5821    0.0725   -0.1428 H   0  0  0  0  0  0  0  0  0  0  0  0
    1.0469    4.4002   -4.4406 H   0  0  0  0  0  0  0  0  0  0  0  0
    1.8239    5.5508   -6.5444 H   0  0  0  0  0  0  0  0  0  0  0  0
    0.8222    7.0011   -6.5331 H   0  0  0  0  0  0  0  0  0  0  0  0
   -0.4128    6.2035   -8.5383 H   0  0  0  0  0  0  0  0  0  0  0  0
    0.5820    4.7417   -8.5781 H   0  0  0  0  0  0  0  0  0  0  0  0
    1.3205    6.3216   -8.8674 H   0  0  0  0  0  0  0  0  0  0  0  0
    5.4872   -8.5770    5.7086 H   0  0  0  0  0  0  0  0  0  0  0  0
    2.9614  -10.0530    4.9330 H   0  0  0  0  0  0  0  0  0  0  0  0
    0.5248  -10.5961    4.2958 H   0  0  0  0  0  0  0  0  0  0  0  0
    0.5055  -10.0136    2.6293 H   0  0  0  0  0  0  0  0  0  0  0  0
   -1.7399   -9.7606    3.6583 H   0  0  0  0  0  0  0  0  0  0  0  0
   -1.0533   -8.7439    4.9314 H   0  0  0  0  0  0  0  0  0  0  0  0
   -1.0517   -8.1828    3.2539 H   0  0  0  0  0  0  0  0  0  0  0  0
  1  2  1  0  0  0  0
  2  3  1  0  0  0  0
  3  4  2  0  0  0  0
  4  5  1  0  0  0  0
  5  6  2  0  0  0  0
  6  7  1  0  0  0  0
  7  8  1  0  0  0  0
  6  9  1  0  0  0  0
  9 10  1  0  0  0  0
  3 11  1  0  0  0  0
 11 12  1  0  0  0  0
 12 13  1  0  0  0  0
 13 14  2  0  0  0  0
 14 15  1  0  0  0  0
 15 16  2  0  0  0  0
 16 17  1  0  0  0  0
 17 18  1  0  0  0  0
 16 19  1  0  0  0  0
 19 20  1  0  0  0  0
 13 21  1  0  0  0  0
 21 22  1  0  0  0  0
 22 23  1  0  0  0  0
 23 24  2  0  0  0  0
 24 25  1  0  0  0  0
 25 26  1  0  0  0  0
 26 27  3  0  0  0  0
 24 28  1  0  0  0  0
 28 29  1  0  0  0  0
 28 30  1  0  0  0  0
 28 31  1  0  0  0  0
 23 32  1  0  0  0  0
 32 33  1  0  0  0  0
 33 34  1  0  0  0  0
 34 35  2  0  0  0  0
 35 36  1  0  0  0  0
 36 37  1  0  0  0  0
 37 38  3  0  0  0  0
 35 39  1  0  0  0  0
 39 40  1  0  0  0  0
 39 41  1  0  0  0  0
 39 42  1  0  0  0  0
 34 43  1  0  0  0  0
 43 44  1  0  0  0  0
 44 45  1  0  0  0  0
 45 46  2  0  0  0  0
 46 47  1  0  0  0  0
 47 48  1  0  0  0  0
 48 49  3  0  0  0  0
 46 50  1  0  0  0  0
 50 51  1  0  0  0  0
 50 52  1  0  0  0  0
 50 53  1  0  0  0  0
 45 54  1  0  0  0  0
 54 55  1  0  0  0  0
 55 56  1  0  0  0  0
 56 57  2  0  0  0  0
 57 58  1  0  0  0  0
 58 59  2  0  0  0  0
 59 60  1  0  0  0  0
 60 61  1  0  0  0  0
 59 62  1  0  0  0  0
 62 63  1  0  0  0  0
 10  1  2  0  0  0  0
 20 11  2  0  0  0  0
 25 21  2  0  0  0  0
 36 32  2  0  0  0  0
 47 43  2  0  0  0  0
 63 54  2  0  0  0  0
 10  4  1  0  0  0  0
 20 14  1  0  0  0  0
 63 57  1  0  0  0  0
  1 64  1  0  0  0  0
  5 65  1  0  0  0  0
  7 66  1  0  0  0  0
  7 67  1  0  0  0  0
  8 68  1  0  0  0  0
  8 69  1  0  0  0  0
  8 70  1  0  0  0  0
 15 71  1  0  0  0  0
 17 72  1  0  0  0  0
 17 73  1  0  0  0  0
 18 74  1  0  0  0  0
 18 75  1  0  0  0  0
 18 76  1  0  0  0  0
 56 77  1  0  0  0  0
 58 78  1  0  0  0  0
 60 79  1  0  0  0  0
 60 80  1  0  0  0  0
 61 81  1  0  0  0  0
 61 82  1  0  0  0  0
 61 83  1  0  0  0  0
M  END
