
  xtb     02282217373D
 energy: -216.153774724694 gnorm: 0.000922556766 xtb: 6.4.1 (unknown)
 84 91  0     0  0            999 V2000
    3.0761   -4.6010   -8.1338 C   0  0  0  0  0  0  0  0  0  0  0  0
    3.9619   -3.8603   -6.8825 S   0  0  0  0  0  0  0  0  0  0  0  0
    2.5512   -3.0153   -6.3158 C   0  0  0  0  0  0  0  0  0  0  0  0
    1.4526   -3.3127   -7.0961 C   0  0  0  0  0  0  0  0  0  0  0  0
    1.7563   -4.2278   -8.1418 C   0  0  0  0  0  0  0  0  0  0  0  0
    0.8387   -4.7353   -9.0876 C   0  0  0  0  0  0  0  0  0  0  0  0
    0.1236   -5.1814   -9.8615 N   0  0  0  0  0  0  0  0  0  0  0  0
    0.0993   -2.7035   -6.9024 C   0  0  0  0  0  0  0  0  0  0  0  0
   -0.5708   -3.2618   -5.8737 F   0  0  0  0  0  0  0  0  0  0  0  0
   -0.6840   -2.8169   -7.9731 F   0  0  0  0  0  0  0  0  0  0  0  0
    0.1747   -1.3873   -6.6256 F   0  0  0  0  0  0  0  0  0  0  0  0
    2.6438   -2.1788   -5.1520 C   0  0  0  0  0  0  0  0  0  0  0  0
    1.3657   -2.0461   -3.9928 S   0  0  0  0  0  0  0  0  0  0  0  0
    2.3054   -0.9928   -2.9796 C   0  0  0  0  0  0  0  0  0  0  0  0
    3.5423   -0.7500   -3.5328 C   0  0  0  0  0  0  0  0  0  0  0  0
    3.7440   -1.4334   -4.7596 C   0  0  0  0  0  0  0  0  0  0  0  0
    4.9226   -1.3102   -5.5232 C   0  0  0  0  0  0  0  0  0  0  0  0
    5.8753   -1.1995   -6.1494 N   0  0  0  0  0  0  0  0  0  0  0  0
    4.5661    0.2385   -3.0597 C   0  0  0  0  0  0  0  0  0  0  0  0
    4.7744    1.1801   -4.0000 F   0  0  0  0  0  0  0  0  0  0  0  0
    4.1997    0.9044   -1.9563 F   0  0  0  0  0  0  0  0  0  0  0  0
    5.7528   -0.3187   -2.8111 F   0  0  0  0  0  0  0  0  0  0  0  0
    1.7462   -0.5415   -1.7392 C   0  0  0  0  0  0  0  0  0  0  0  0
    0.1343    0.0955   -1.6652 S   0  0  0  0  0  0  0  0  0  0  0  0
    0.2156    0.3529    0.0586 C   0  0  0  0  0  0  0  0  0  0  0  0
    1.4516   -0.0701    0.5280 C   0  0  0  0  0  0  0  0  0  0  0  0
    2.1611   -0.1344    2.1040 S   0  0  0  0  0  0  0  0  0  0  0  0
    3.5998   -0.8753    1.4428 C   0  0  0  0  0  0  0  0  0  0  0  0
    4.6698   -1.2172    2.3983 C   0  0  0  0  0  0  0  0  0  0  0  0
    5.7083   -1.7563    2.1276 O   0  0  0  0  0  0  0  0  0  0  0  0
    4.2866   -0.8244    3.6137 O   0  0  0  0  0  0  0  0  0  0  0  0
    5.1814   -1.0426    4.7078 C   0  0  0  0  0  0  0  0  0  0  0  0
    4.8439   -0.0501    5.8049 C   0  0  0  0  0  0  0  0  0  0  0  0
    3.5338   -1.0503    0.0925 C   0  0  0  0  0  0  0  0  0  0  0  0
    2.3153   -0.5787   -0.4747 C   0  0  0  0  0  0  0  0  0  0  0  0
    4.4757   -1.6278   -0.6446 F   0  0  0  0  0  0  0  0  0  0  0  0
   -0.8296    0.8838    0.8465 C   0  0  0  0  0  0  0  0  0  0  0  0
   -0.6096    0.9476    2.5685 S   0  0  0  0  0  0  0  0  0  0  0  0
   -2.1980    1.6229    2.8518 C   0  0  0  0  0  0  0  0  0  0  0  0
   -2.8477    1.8087    1.6432 C   0  0  0  0  0  0  0  0  0  0  0  0
   -4.3559    2.5350    1.1989 S   0  0  0  0  0  0  0  0  0  0  0  0
   -3.9962    2.2788   -0.4890 C   0  0  0  0  0  0  0  0  0  0  0  0
   -4.9975    2.7453   -1.4648 C   0  0  0  0  0  0  0  0  0  0  0  0
   -5.9885    3.3495   -1.1394 O   0  0  0  0  0  0  0  0  0  0  0  0
   -4.6641    2.4270   -2.7100 O   0  0  0  0  0  0  0  0  0  0  0  0
   -5.5638    2.8384   -3.7440 C   0  0  0  0  0  0  0  0  0  0  0  0
   -4.8161    2.8208   -5.0634 C   0  0  0  0  0  0  0  0  0  0  0  0
   -2.7895    1.6721   -0.6908 C   0  0  0  0  0  0  0  0  0  0  0  0
   -2.0841    1.3977    0.5099 C   0  0  0  0  0  0  0  0  0  0  0  0
   -2.3016    1.3849   -1.8984 F   0  0  0  0  0  0  0  0  0  0  0  0
   -2.5555    1.8951    4.1981 C   0  0  0  0  0  0  0  0  0  0  0  0
   -1.2870    2.1620    5.3499 S   0  0  0  0  0  0  0  0  0  0  0  0
   -2.4195    2.3480    6.6576 C   0  0  0  0  0  0  0  0  0  0  0  0
   -3.7169    2.2087    6.2021 C   0  0  0  0  0  0  0  0  0  0  0  0
   -3.8034    1.9431    4.8117 C   0  0  0  0  0  0  0  0  0  0  0  0
   -4.9897    1.6259    4.1249 C   0  0  0  0  0  0  0  0  0  0  0  0
   -5.9305    1.3215    3.5460 N   0  0  0  0  0  0  0  0  0  0  0  0
   -4.9157    2.2696    7.0991 C   0  0  0  0  0  0  0  0  0  0  0  0
   -4.7373    1.5465    8.2224 F   0  0  0  0  0  0  0  0  0  0  0  0
   -5.1794    3.5290    7.5037 F   0  0  0  0  0  0  0  0  0  0  0  0
   -6.0298    1.8128    6.5355 F   0  0  0  0  0  0  0  0  0  0  0  0
   -1.9158    2.6149    7.9727 C   0  0  0  0  0  0  0  0  0  0  0  0
   -2.7975    3.5128    9.1676 S   0  0  0  0  0  0  0  0  0  0  0  0
   -1.5154    3.3930   10.2874 C   0  0  0  0  0  0  0  0  0  0  0  0
   -0.4523    2.7045    9.7866 C   0  0  0  0  0  0  0  0  0  0  0  0
   -0.6624    2.2577    8.4534 C   0  0  0  0  0  0  0  0  0  0  0  0
    0.3008    1.5075    7.7530 C   0  0  0  0  0  0  0  0  0  0  0  0
    1.1069    0.8936    7.2168 N   0  0  0  0  0  0  0  0  0  0  0  0
    0.8128    2.4356   10.5384 C   0  0  0  0  0  0  0  0  0  0  0  0
    1.0543    1.1236   10.6770 F   0  0  0  0  0  0  0  0  0  0  0  0
    1.8863    2.9607    9.9266 F   0  0  0  0  0  0  0  0  0  0  0  0
    0.7805    2.9552   11.7725 F   0  0  0  0  0  0  0  0  0  0  0  0
    3.5546   -5.2769   -8.8151 H   0  0  0  0  0  0  0  0  0  0  0  0
    6.2095   -0.9233    4.3492 H   0  0  0  0  0  0  0  0  0  0  0  0
    5.0523   -2.0738    5.0547 H   0  0  0  0  0  0  0  0  0  0  0  0
    5.4808   -0.2307    6.6654 H   0  0  0  0  0  0  0  0  0  0  0  0
    3.8042   -0.1562    6.1025 H   0  0  0  0  0  0  0  0  0  0  0  0
    5.0011    0.9669    5.4557 H   0  0  0  0  0  0  0  0  0  0  0  0
   -6.4110    2.1437   -3.7589 H   0  0  0  0  0  0  0  0  0  0  0  0
   -5.9428    3.8378   -3.5044 H   0  0  0  0  0  0  0  0  0  0  0  0
   -3.9809    3.5152   -5.0322 H   0  0  0  0  0  0  0  0  0  0  0  0
   -4.4304    1.8245   -5.2602 H   0  0  0  0  0  0  0  0  0  0  0  0
   -5.4889    3.1088   -5.8656 H   0  0  0  0  0  0  0  0  0  0  0  0
   -1.6018    3.8301   11.2629 H   0  0  0  0  0  0  0  0  0  0  0  0
  1  2  1  0  0  0  0
  2  3  1  0  0  0  0
  3  4  2  0  0  0  0
  4  5  1  0  0  0  0
  5  6  1  0  0  0  0
  6  7  3  0  0  0  0
  4  8  1  0  0  0  0
  8  9  1  0  0  0  0
  8 10  1  0  0  0  0
  8 11  1  0  0  0  0
  3 12  1  0  0  0  0
 12 13  1  0  0  0  0
 13 14  1  0  0  0  0
 14 15  2  0  0  0  0
 15 16  1  0  0  0  0
 16 17  1  0  0  0  0
 17 18  3  0  0  0  0
 15 19  1  0  0  0  0
 19 20  1  0  0  0  0
 19 21  1  0  0  0  0
 19 22  1  0  0  0  0
 14 23  1  0  0  0  0
 23 24  1  0  0  0  0
 24 25  1  0  0  0  0
 25 26  2  0  0  0  0
 26 27  1  0  0  0  0
 27 28  1  0  0  0  0
 28 29  1  0  0  0  0
 29 30  2  0  0  0  0
 29 31  1  0  0  0  0
 31 32  1  0  0  0  0
 32 33  1  0  0  0  0
 28 34  2  0  0  0  0
 34 35  1  0  0  0  0
 34 36  1  0  0  0  0
 25 37  1  0  0  0  0
 37 38  1  0  0  0  0
 38 39  1  0  0  0  0
 39 40  2  0  0  0  0
 40 41  1  0  0  0  0
 41 42  1  0  0  0  0
 42 43  1  0  0  0  0
 43 44  2  0  0  0  0
 43 45  1  0  0  0  0
 45 46  1  0  0  0  0
 46 47  1  0  0  0  0
 42 48  2  0  0  0  0
 48 49  1  0  0  0  0
 48 50  1  0  0  0  0
 39 51  1  0  0  0  0
 51 52  1  0  0  0  0
 52 53  1  0  0  0  0
 53 54  2  0  0  0  0
 54 55  1  0  0  0  0
 55 56  1  0  0  0  0
 56 57  3  0  0  0  0
 54 58  1  0  0  0  0
 58 59  1  0  0  0  0
 58 60  1  0  0  0  0
 58 61  1  0  0  0  0
 53 62  1  0  0  0  0
 62 63  1  0  0  0  0
 63 64  1  0  0  0  0
 64 65  2  0  0  0  0
 65 66  1  0  0  0  0
 66 67  1  0  0  0  0
 67 68  3  0  0  0  0
 65 69  1  0  0  0  0
 69 70  1  0  0  0  0
 69 71  1  0  0  0  0
 69 72  1  0  0  0  0
  5  1  2  0  0  0  0
 16 12  2  0  0  0  0
 35 23  2  0  0  0  0
 49 37  2  0  0  0  0
 55 51  2  0  0  0  0
 66 62  2  0  0  0  0
 35 26  1  0  0  0  0
 49 40  1  0  0  0  0
  1 73  1  0  0  0  0
 32 74  1  0  0  0  0
 32 75  1  0  0  0  0
 33 76  1  0  0  0  0
 33 77  1  0  0  0  0
 33 78  1  0  0  0  0
 46 79  1  0  0  0  0
 46 80  1  0  0  0  0
 47 81  1  0  0  0  0
 47 82  1  0  0  0  0
 47 83  1  0  0  0  0
 64 84  1  0  0  0  0
M  END
