116

C         -9.54810        0.80460      -11.49410
S         -9.81810        0.18350       -9.91030
C         -8.34090        0.89290       -9.36910
C         -7.73610        0.86270       -8.08370
C         -6.52670        1.52240       -7.92520
Ge        -6.02320        2.34330       -9.64490
C         -6.06730        4.34860       -9.57820
C         -4.92340        4.94270       -8.77180
C         -4.32710        1.55930      -10.38610
C         -3.25210        1.39030       -9.32260
C         -7.68410        1.57290      -10.37940
C         -8.39000        1.51350      -11.59300
C         -6.02930        1.40230       -6.62910
C         -6.84180        0.66140       -5.79450
S         -8.26850        0.09810       -6.63320
C         -6.61470        0.32600       -4.43530
S         -5.14210        0.83140       -3.64470
C         -5.62720        0.02920       -2.19610
C         -4.93210       -0.10960       -0.97420
C         -5.53170       -0.85230        0.03960
Ge        -7.27870       -1.49730       -0.61790
C         -7.33890       -3.49440       -0.79700
C         -8.55060       -3.96900       -1.58370
C         -8.85020       -0.71020        0.34840
C         -9.00570       -1.26550        1.75530
C         -6.86690       -0.58640       -2.31780
C         -7.41650       -0.41200       -3.58550
C         -4.71760       -0.95710        1.16190
C         -3.50120       -0.30790        1.02420
S         -3.37330        0.47110       -0.53520
C         -2.40760       -0.28270        1.92500
S         -0.93740        0.55280        1.50070
C         -0.18110       -0.00490        2.94700
C          1.15720        0.13460        3.36440
C          1.54880       -0.54020        4.52460
Ge        -0.03220       -1.43170        5.29930
C          0.16700       -3.42670        5.31510
C          0.59740       -3.96230        3.95830
C         -0.59820       -0.59820        7.03590
C          0.43820       -0.78260        8.13370
C         -1.03620       -0.77830        3.72950
C         -2.28980       -0.92460        3.14980
C          2.90680       -0.41960        4.75520
C          3.56450        0.35800        3.80730
S          2.45400        0.96380        2.59740
C          4.95110        0.59420        3.72620
S          6.06360       -0.37280        4.65000
C          7.45170        0.41570        3.93510
C          7.05110        1.41310        3.07360
C          5.64560        1.51300        2.93900
C          5.02360        2.46490        2.11210
N          4.52760        3.24880        1.43820
C          7.92960        2.44840        2.43900
F          7.51260        3.68510        2.76890
F          9.20730        2.38380        2.84610
F          7.93470        2.39210        1.10530
C          8.75650       -0.07940        4.24230
S          9.18200       -0.55460        5.85100
C         10.76380       -1.08210        5.34550
C         10.93590       -0.87670        3.98880
C          9.79350       -0.33180        3.35510
C          9.62840       -0.20450        1.96060
N          9.42790       -0.16400        0.83400
C         12.20030       -1.16170        3.23920
F         12.25430       -0.56190        2.05340
F         12.37430       -2.48080        3.00940
F         13.29130       -0.75440        3.91610
C         11.63810       -1.69090        6.30270
S         12.87590       -2.82590        5.85790
C         13.31180       -3.07970        7.48780
C         12.55500       -2.34250        8.34710
C         11.58400       -1.54410        7.68270
C         10.70800       -0.69110        8.37890
N         10.01200       -0.00320        8.97570
C         12.70740       -2.36290        9.83470
F         13.02000       -1.15920       10.33500
F         11.58330       -2.75760       10.45360
F         13.67470       -3.20540       10.22480
H        -10.27200        0.60210      -12.25900
H         -7.02380        4.64300       -9.14610
H         -6.04200        4.72590      -10.60050
H         -3.96490        4.69610       -9.22330
H         -4.93280        4.55870       -7.75390
H         -5.00920        6.02720       -8.72920
H         -4.56530        0.59300      -10.82970
H         -3.96900        2.20660      -11.18620
H         -3.59780        0.72450       -8.53480
H         -2.99640        2.34610       -8.87100
H         -2.34890        0.96640       -9.75850
H         -8.05410        1.97560      -12.50490
H         -5.10240        1.83340       -6.29060
H         -7.34020       -3.93270        0.20080
H         -6.42150       -3.81380       -1.29110
H         -8.54750       -3.54030       -2.58360
H         -8.54650       -5.05370       -1.67620
H         -9.47330       -3.67250       -1.08880
H         -8.71780        0.37090        0.38260
H         -9.74700       -0.90940       -0.23770
H         -8.11600       -1.05990        2.34680
H         -9.86080       -0.81210        2.25360
H         -9.15750       -2.34280        1.73060
H         -8.36790       -0.80780       -3.89720
H         -4.98970       -1.49770        2.05130
H         -0.78420       -3.86770        5.61250
H          0.90080       -3.69280        6.07540
H         -0.13680       -3.70890        3.19590
H          1.55330       -3.53330        3.66360
H          0.70160       -5.04510        3.98930
H         -0.76800        0.46280        6.85400
H         -1.54990       -1.03500        7.33740
H          1.38800       -0.34110        7.83990
H          0.60050       -1.83860        8.33910
H          0.10770       -0.30330        9.05320
H         -3.09000       -1.49470        3.58720
H          3.42970       -0.87460        5.57980
H         14.10530       -3.75570        7.73940
