225

C          5.51720       -5.30980       10.27030
C          5.18090       -4.07880        9.83430
C          4.12340       -4.10290        8.87950
C          3.55530       -3.02430        8.18730
C          3.97140       -1.65200        8.44150
S          4.61970       -0.65380        7.17660
C          4.80500        0.70540        8.23120
C          5.33420        2.01410        7.75230
C          6.20920        1.88020        6.51300
C          4.38850        0.38260        9.48910
Cl         4.41250        1.47940       10.80930
C          3.92150       -0.95390        9.61380
Cl         3.30750       -1.59630       11.08200
C          2.57570       -3.32250        7.25110
C          2.13320       -4.64050        6.98320
C          2.69170       -5.72000        7.68760
C          2.26870       -7.08780        7.43700
S          2.29530       -7.75630        5.83110
C          1.73420       -9.29870        6.37780
C          1.57700      -10.44110        5.43640
C          2.90680      -11.17330        5.24070
C          1.54530       -9.28200        7.72740
C          1.84330       -8.03060        8.33130
Cl         1.59780       -7.73680       10.00110
Cl         0.99140      -10.63010        8.63220
C          3.67930       -5.42230        8.62110
S          4.58090       -6.57740        9.55990
C          1.09480       -4.66040        6.01670
C          0.75200       -3.42340        5.55900
S          1.69730       -2.15460        6.30930
C         -0.25810       -3.07880        4.61280
C         -0.59330       -1.83170        4.17590
C         -1.67490       -1.82130        3.26270
C         -2.26320       -0.71860        2.62460
C         -1.77960        0.64570        2.79780
S         -2.82600        1.91680        3.35480
C         -1.60650        3.12300        3.13340
C         -1.86630        4.56040        3.42820
C         -1.28190        4.99290        4.77440
C         -0.45540        2.55640        2.67070
Cl         0.96260        3.45260        2.31070
C         -0.55060        1.15120        2.47870
Cl         0.72200        0.20540        1.82310
C         -3.30550       -0.98280        1.74780
C         -3.76600       -2.28960        1.45530
C         -3.20490       -3.39190        2.12520
C         -3.66440       -4.74900        1.87520
S         -3.73710       -5.40360        0.26360
C         -4.30410       -6.94030        0.82390
C         -4.55080       -8.06450       -0.12010
C         -3.24670       -8.78250       -0.47530
C         -4.41900       -6.93260        2.18130
C         -4.06260       -5.69350        2.77990
Cl        -4.21880       -5.41560        4.46340
Cl        -4.95420       -8.27620        3.10430
C         -2.17010       -3.12790        3.01490
S         -1.26600       -4.32160        3.90230
C         -4.75400       -2.28260        0.43800
C         -5.02900       -1.03660       -0.04060
S         -4.12370        0.21260        0.78800
C         -5.77750       -0.68120       -1.20730
C         -5.92650       -1.43700       -2.33290
C         -6.42070       -0.70230       -3.43960
C         -6.46090       -1.10810       -4.78630
C         -6.18730       -2.49430       -5.13500
S         -7.16300       -3.77330       -4.47420
C         -6.23300       -4.99930       -5.26760
C         -6.52820       -6.44360       -5.06030
C         -5.97930       -6.92260       -3.71390
C         -5.22520       -4.43410       -5.98930
Cl        -4.08200       -5.32940       -6.90350
C         -5.19590       -3.01420       -5.91810
Cl        -3.96490       -2.08530       -6.66680
C         -6.66950       -0.11610       -5.73220
C         -6.92860        1.23710       -5.38940
C         -7.01500        1.61280       -4.03910
C         -7.40050        2.94750       -3.60310
S         -6.55090        4.40530       -4.01960
C         -7.65370        5.39980       -3.12450
C         -7.49560        6.88160       -3.08000
C         -7.28990        7.40480       -1.65750
C         -8.61430        4.62900       -2.53990
C         -8.46420        3.24070       -2.79630
Cl        -9.56030        2.06470       -2.20110
Cl        -9.92280        5.24010       -1.61410
C         -6.69690        0.64170       -3.09990
S         -6.37260        0.95050       -1.41810
C         -6.91470        2.08150       -6.52440
C         -6.60660        1.43560       -7.68990
S         -6.52070       -0.30450       -7.45560
C         -5.98570        2.04620       -8.83390
C         -5.83620        3.44670       -8.92570
N         -4.75590        3.99060       -9.40720
C         -3.78880        3.22670       -9.92640
C         -4.09000        1.90810      -10.31450
C         -5.17340        1.30930       -9.71150
C         -2.41490        3.62510       -9.72180
C         -2.16770        4.43390       -8.66950
C         -1.03000        4.43370       -7.81240
C         -1.16990        4.67210       -6.47220
C         -0.07190        4.24500       -5.69480
C         -0.01800        4.13400       -4.29480
C         -1.15680        4.53170       -3.48190
S         -1.99670        3.37400       -2.49140
C         -3.19290        4.53310       -2.01770
C         -4.28940        4.15000       -1.08720
C         -3.75950        3.92060        0.32820
C         -2.92800        5.74320       -2.58520
Cl        -3.86680        7.15520       -2.34230
C         -1.78220        5.74370       -3.42560
Cl        -1.22380        7.14760       -4.24100
C          1.10660        3.53300       -3.75520
C          2.18600        3.06830       -4.54730
C          2.11340        3.14620       -5.95160
C          3.15530        2.56880       -6.78530
S          3.93530        3.49210       -8.03390
C          4.94470        2.16490       -8.49340
C          5.97950        2.30220       -9.55500
C          7.33500        2.67540       -8.94930
C          4.68190        1.07760       -7.71420
C          3.66650        1.30020       -6.74730
Cl         3.10120        0.05730       -5.70400
Cl         5.48060       -0.43150       -7.88270
C          0.97630        3.72880       -6.49590
S          0.54700        3.76600       -8.18960
C          3.21380        2.50830       -3.74980
C          2.92040        2.49350       -2.41660
S          1.37660        3.23840       -2.06430
C          3.66800        1.88110       -1.36490
C          4.69610        0.99310       -1.49180
C          5.14720        0.47490       -0.25360
C          6.12930       -0.50570       -0.03430
C          6.89570       -1.05300       -1.14120
S          7.74020       -0.00730       -2.24620
C          8.33790       -1.33800       -3.17780
C          9.14940       -1.11260       -4.40520
C          8.25790       -0.70040       -5.57880
C          7.89450       -2.51530       -2.65460
Cl         8.26930       -4.05620       -3.30980
C          7.08220       -2.35930       -1.49850
Cl         6.34590       -3.69120       -0.71140
C          6.32440       -0.91800        1.27850
C          5.58400       -0.39780        2.36860
C          4.62130        0.60000        2.15210
C          3.88340        1.19610        3.25720
S          2.93700        0.23570        4.35160
C          2.49770        1.60960        5.30500
C          1.63450        1.49240        6.51340
C          0.15740        1.69460        6.17510
C          3.04020        2.74250        4.77550
C          3.82610        2.51430        3.61520
Cl         4.67780        3.76750        2.81310
Cl         2.83120        4.30400        5.45560
C          4.42010        1.00780        0.83960
S          3.22340        2.14520        0.30260
C          5.99910       -0.97250        3.60540
C          7.00440       -1.85900        3.45860
S          7.51480       -2.06630        1.82060
H          6.27340       -5.57180       10.98440
H          5.66060       -3.17480       10.16150
H          4.49260        2.67720        7.52780
H          5.89970        2.47270        8.56730
H          7.05610        1.22720        6.70920
H          6.58310        2.85510        6.21280
H          5.63760        1.46570        5.68620
H          1.22040      -10.07130        4.47350
H          0.83600      -11.13110        5.84420
H          2.77670      -12.00690        4.55590
H          3.65300      -10.49690        4.83070
H          3.26920      -11.55620        6.19130
H          0.60870       -5.55730        5.67740
H         -0.07080       -0.94860        4.49520
H         -2.94320        4.73320        3.42690
H         -1.41240        5.16100        2.63650
H         -1.49640        6.04400        4.94820
H         -0.20360        4.85720        4.77970
H         -1.71830        4.41220        5.58340
H         -5.23960       -8.76810        0.35070
H         -5.01060       -7.67920       -1.03160
H         -2.78160       -9.18520        0.42080
H         -3.44690       -9.60050       -1.16180
H         -2.55200       -8.09170       -0.94710
H         -5.23490       -3.16810        0.06640
H         -5.59920       -2.45850       -2.39720
H         -6.06840       -7.01340       -5.86930
H         -7.60750       -6.60360       -5.08830
H         -4.90240       -6.77660       -3.67330
H         -6.19560       -7.97920       -3.57900
H         -6.43900       -6.36240       -2.90230
H         -6.64290        7.16140       -3.70020
H         -8.39260        7.34480       -3.50110
H         -7.15040        8.48220       -1.68210
H         -8.15110        7.18040       -1.03600
H         -6.41000        6.95420       -1.20730
H         -7.01160        3.14880       -6.45170
H         -6.57580        4.12610       -8.52510
H         -3.41820        1.34430      -10.94200
H         -5.34300        0.24840       -9.82630
H         -1.63630        3.04480      -10.19510
H         -3.02140        4.95990       -8.25720
H         -2.07890        5.05740       -6.04820
H         -5.03850        4.94300       -1.08190
H         -4.76210        3.23230       -1.44300
H         -2.99630        3.14620        0.32190
H         -3.32440        4.83600        0.72030
H         -4.56680        3.60350        0.98200
H          6.06910        1.35160      -10.08480
H          5.67040        3.07140      -10.26380
H          7.26420        3.62270       -8.42040
H          8.08120        2.76800       -9.73350
H          7.65730        1.90870       -8.24920
H          4.13800        2.13470       -4.14860
H          5.08910        0.68520       -2.44240
H          9.88580       -0.32880       -4.21710
H          9.67590       -2.03660       -4.64960
H          7.51870       -1.47150       -5.77980
H          7.73800        0.22760       -5.35090
H          8.85870       -0.55420       -6.47250
H          1.94050        2.25410        7.23400
H          1.77540        0.50960        6.96450
H         -0.18510        0.93540        5.47760
H          0.00790        2.66850        5.72020
H         -0.44360        1.63030        7.07800
H          5.55690       -0.73160        4.55420
H          7.49570       -2.42680        4.22420
