
  xtb     03022207143D
 energy: -440.921101473007 gnorm: 0.000291119993 xtb: 6.4.1 (unknown)
224250  0     0  0            999 V2000
   12.1645   -6.3811   -3.3611 C   0  0  0  0  0  0  0  0  0  0  0  0
   11.8617   -5.3371   -4.1581 C   0  0  0  0  0  0  0  0  0  0  0  0
   10.9790   -5.6906   -5.2214 C   0  0  0  0  0  0  0  0  0  0  0  0
   10.5024   -4.8814   -6.2632 C   0  0  0  0  0  0  0  0  0  0  0  0
   10.8253   -3.4658   -6.3385 C   0  0  0  0  0  0  0  0  0  0  0  0
   10.4776   -2.3947   -5.0130 S   0  0  0  0  0  0  0  0  0  0  0  0
   11.0536   -1.0093   -5.8740 C   0  0  0  0  0  0  0  0  0  0  0  0
   10.9683    0.3535   -5.2819 C   0  0  0  0  0  0  0  0  0  0  0  0
    9.5855    0.9625   -5.5272 C   0  0  0  0  0  0  0  0  0  0  0  0
   11.4870   -1.3715   -7.1136 C   0  0  0  0  0  0  0  0  0  0  0  0
   12.1376   -0.2716   -8.2585 Cl  0  0  0  0  0  0  0  0  0  0  0  0
   11.3614   -2.7624   -7.3798 C   0  0  0  0  0  0  0  0  0  0  0  0
   11.9110   -3.4726   -8.8385 Cl  0  0  0  0  0  0  0  0  0  0  0  0
    9.6796   -5.4844   -7.2072 C   0  0  0  0  0  0  0  0  0  0  0  0
    9.2959   -6.8450   -7.1364 C   0  0  0  0  0  0  0  0  0  0  0  0
    9.7967   -7.6609   -6.1114 C   0  0  0  0  0  0  0  0  0  0  0  0
    9.4648   -9.0738   -6.0376 C   0  0  0  0  0  0  0  0  0  0  0  0
    8.8309   -9.7812   -4.5816 S   0  0  0  0  0  0  0  0  0  0  0  0
    8.7466  -11.3571   -5.2917 C   0  0  0  0  0  0  0  0  0  0  0  0
    8.2060  -12.5162   -4.5297 C   0  0  0  0  0  0  0  0  0  0  0  0
    6.6756  -12.5052   -4.5224 C   0  0  0  0  0  0  0  0  0  0  0  0
    9.1799  -11.3190   -6.5834 C   0  0  0  0  0  0  0  0  0  0  0  0
    9.5903  -10.0272   -7.0094 C   0  0  0  0  0  0  0  0  0  0  0  0
   10.2500   -9.7338   -8.5664 Cl  0  0  0  0  0  0  0  0  0  0  0  0
    9.2478  -12.6905   -7.6134 Cl  0  0  0  0  0  0  0  0  0  0  0  0
   10.6298   -7.0593   -5.1745 C   0  0  0  0  0  0  0  0  0  0  0  0
   11.4048   -7.8617   -3.8368 S   0  0  0  0  0  0  0  0  0  0  0  0
    8.3673   -7.1842   -8.1593 C   0  0  0  0  0  0  0  0  0  0  0  0
    8.0596   -6.1470   -8.9743 C   0  0  0  0  0  0  0  0  0  0  0  0
    8.9344   -4.6873   -8.5579 S   0  0  0  0  0  0  0  0  0  0  0  0
    7.1894   -6.1580  -10.1370 C   0  0  0  0  0  0  0  0  0  0  0  0
    6.0289   -5.3332  -10.3319 C   0  0  0  0  0  0  0  0  0  0  0  0
    5.4504   -5.5309  -11.7304 C   0  0  0  0  0  0  0  0  0  0  0  0
    6.3583   -6.5843  -12.2553 C   0  0  0  0  0  0  0  0  0  0  0  0
    7.3469   -6.9048  -11.2702 C   0  0  0  0  0  0  0  0  0  0  0  0
    7.9844   -7.8995  -12.2278 C   0  0  0  0  0  0  0  0  0  0  0  0
    6.8680   -7.4446  -13.1718 C   0  0  0  0  0  3  0  0  0  0  0  0
    5.4160   -4.5257   -9.3847 C   0  0  0  0  0  0  0  0  0  0  0  0
    4.3417   -3.6615   -9.5801 C   0  0  0  0  0  0  0  0  0  0  0  0
    3.9259   -2.9919   -8.4242 C   0  0  0  0  0  0  0  0  0  0  0  0
    2.8683   -2.0608   -8.2791 C   0  0  0  0  0  0  0  0  0  0  0  0
    1.9971   -1.7385   -9.3930 C   0  0  0  0  0  0  0  0  0  0  0  0
    1.2199   -2.9975  -10.3141 S   0  0  0  0  0  0  0  0  0  0  0  0
    0.3861   -1.8621  -11.3200 C   0  0  0  0  0  0  0  0  0  0  0  0
   -0.4855   -2.3166  -12.4381 C   0  0  0  0  0  0  0  0  0  0  0  0
    0.3459   -2.6592  -13.6766 C   0  0  0  0  0  0  0  0  0  0  0  0
    0.7112   -0.5887  -10.9612 C   0  0  0  0  0  0  0  0  0  0  0  0
    0.0935    0.8106  -11.7390 Cl  0  0  0  0  0  0  0  0  0  0  0  0
    1.6173   -0.5133   -9.8688 C   0  0  0  0  0  0  0  0  0  0  0  0
    2.2305    0.9804   -9.2958 Cl  0  0  0  0  0  0  0  0  0  0  0  0
    2.6838   -1.5079   -7.0198 C   0  0  0  0  0  0  0  0  0  0  0  0
    3.5052   -1.8307   -5.9082 C   0  0  0  0  0  0  0  0  0  0  0  0
    4.5145   -2.8090   -6.0310 C   0  0  0  0  0  0  0  0  0  0  0  0
    5.2591   -3.2794   -4.8759 C   0  0  0  0  0  0  0  0  0  0  0  0
    6.9897   -3.4780   -4.9205 S   0  0  0  0  0  0  0  0  0  0  0  0
    7.0451   -4.0731   -3.2985 C   0  0  0  0  0  0  0  0  0  0  0  0
    8.3127   -4.5437   -2.6762 C   0  0  0  0  0  0  0  0  0  0  0  0
    8.3766   -6.0727   -2.6885 C   0  0  0  0  0  0  0  0  0  0  0  0
    5.7901   -4.1152   -2.7682 C   0  0  0  0  0  0  0  0  0  0  0  0
    4.7749   -3.6733   -3.6564 C   0  0  0  0  0  0  0  0  0  0  0  0
    3.1100   -3.7556   -3.2334 Cl  0  0  0  0  0  0  0  0  0  0  0  0
    5.4450   -4.6525   -1.1763 Cl  0  0  0  0  0  0  0  0  0  0  0  0
    4.7117   -3.3429   -7.2907 C   0  0  0  0  0  0  0  0  0  0  0  0
    5.9107   -4.5308   -7.6906 S   0  0  0  0  0  0  0  0  0  0  0  0
    3.1365   -1.1189   -4.7521 C   0  0  0  0  0  0  0  0  0  0  0  0
    2.0140   -0.3506   -4.9128 C   0  0  0  0  0  0  0  0  0  0  0  0
    1.4109   -0.4124   -6.5525 S   0  0  0  0  0  0  0  0  0  0  0  0
    1.3260    0.3342   -3.8715 C   0  0  0  0  0  0  0  0  0  0  0  0
    1.7037    0.3668   -2.5575 C   0  0  0  0  0  0  0  0  0  0  0  0
    0.7489    0.9608   -1.7049 C   0  0  0  0  0  0  0  0  0  0  0  0
    0.8169    1.1069   -0.3058 C   0  0  0  0  0  0  0  0  0  0  0  0
    1.9719    0.6442    0.4441 C   0  0  0  0  0  0  0  0  0  0  0  0
    2.6121   -0.9605    0.2211 S   0  0  0  0  0  0  0  0  0  0  0  0
    3.8579   -0.7180    1.3949 C   0  0  0  0  0  0  0  0  0  0  0  0
    4.8865   -1.7627    1.6540 C   0  0  0  0  0  0  0  0  0  0  0  0
    6.0850   -1.5871    0.7179 C   0  0  0  0  0  0  0  0  0  0  0  0
    3.7718    0.5364    1.9205 C   0  0  0  0  0  0  0  0  0  0  0  0
    4.8457    1.1470    3.1114 Cl  0  0  0  0  0  0  0  0  0  0  0  0
    2.7025    1.3083    1.3915 C   0  0  0  0  0  0  0  0  0  0  0  0
    2.4449    2.9407    1.8442 Cl  0  0  0  0  0  0  0  0  0  0  0  0
   -0.2907    1.6674    0.3173 C   0  0  0  0  0  0  0  0  0  0  0  0
   -1.4305    2.1118   -0.3992 C   0  0  0  0  0  0  0  0  0  0  0  0
   -1.4601    2.0433   -1.8056 C   0  0  0  0  0  0  0  0  0  0  0  0
   -2.5828    2.5801   -2.5519 C   0  0  0  0  0  0  0  0  0  0  0  0
   -3.3709    1.6638   -3.8022 S   0  0  0  0  0  0  0  0  0  0  0  0
   -4.5023    2.9323   -4.1284 C   0  0  0  0  0  0  0  0  0  0  0  0
   -5.5118    2.7980   -5.2140 C   0  0  0  0  0  0  0  0  0  0  0  0
   -4.8647    2.9969   -6.5864 C   0  0  0  0  0  0  0  0  0  0  0  0
   -4.2626    4.0018   -3.3180 C   0  0  0  0  0  0  0  0  0  0  0  0
   -3.1779    3.8065   -2.4215 C   0  0  0  0  0  0  0  0  0  0  0  0
   -2.6381    5.0426   -1.3585 Cl  0  0  0  0  0  0  0  0  0  0  0  0
   -5.1783    5.4534   -3.3452 Cl  0  0  0  0  0  0  0  0  0  0  0  0
   -0.3802    1.4282   -2.4233 C   0  0  0  0  0  0  0  0  0  0  0  0
   -0.2177    1.1167   -4.1298 S   0  0  0  0  0  0  0  0  0  0  0  0
   -2.4726    2.5150    0.4667 C   0  0  0  0  0  0  0  0  0  0  0  0
   -2.1535    2.4130    1.7906 C   0  0  0  0  0  0  0  0  0  0  0  0
   -0.5301    1.8124    2.0340 S   0  0  0  0  0  0  0  0  0  0  0  0
   -2.9955    2.7325    2.8974 C   0  0  0  0  0  0  0  0  0  0  0  0
   -4.3190    3.0628    2.8450 C   0  0  0  0  0  0  0  0  0  0  0  0
   -4.8841    3.3354    4.1123 C   0  0  0  0  0  0  0  0  0  0  0  0
   -6.2059    3.7207    4.4032 C   0  0  0  0  0  0  0  0  0  0  0  0
   -7.1526    4.0039    3.3399 C   0  0  0  0  0  0  0  0  0  0  0  0
   -8.7447    3.3038    3.3346 S   0  0  0  0  0  0  0  0  0  0  0  0
   -9.1675    4.0791    1.8458 C   0  0  0  0  0  0  0  0  0  0  0  0
  -10.5270    3.9209    1.2605 C   0  0  0  0  0  0  0  0  0  0  0  0
  -11.5511    4.7603    2.0277 C   0  0  0  0  0  0  0  0  0  0  0  0
   -8.1305    4.8415    1.3976 C   0  0  0  0  0  0  0  0  0  0  0  0
   -8.1681    5.7625   -0.0505 Cl  0  0  0  0  0  0  0  0  0  0  0  0
   -6.9860    4.8006    2.2391 C   0  0  0  0  0  0  0  0  0  0  0  0
   -5.5863    5.7438    1.9199 Cl  0  0  0  0  0  0  0  0  0  0  0  0
   -6.5498    3.8093    5.7452 C   0  0  0  0  0  0  0  0  0  0  0  0
   -5.6212    3.5970    6.7937 C   0  0  0  0  0  0  0  0  0  0  0  0
   -4.2764    3.3078    6.4991 C   0  0  0  0  0  0  0  0  0  0  0  0
   -3.2920    3.1749    7.5579 C   0  0  0  0  0  0  0  0  0  0  0  0
   -2.2240    1.8053    7.6399 S   0  0  0  0  0  0  0  0  0  0  0  0
   -1.4659    2.3838    9.0832 C   0  0  0  0  0  0  0  0  0  0  0  0
   -0.3339    1.6456    9.7072 C   0  0  0  0  0  0  0  0  0  0  0  0
    0.9857    1.9882    9.0113 C   0  0  0  0  0  0  0  0  0  0  0  0
   -2.0087    3.5765    9.4590 C   0  0  0  0  0  0  0  0  0  0  0  0
   -3.0460    4.0275    8.6000 C   0  0  0  0  0  0  0  0  0  0  0  0
   -3.8287    5.5393    8.8224 Cl  0  0  0  0  0  0  0  0  0  0  0  0
   -1.5116    4.4615   10.8429 Cl  0  0  0  0  0  0  0  0  0  0  0  0
   -3.9472    3.1528    5.1590 C   0  0  0  0  0  0  0  0  0  0  0  0
   -2.3793    2.7265    4.5353 S   0  0  0  0  0  0  0  0  0  0  0  0
   -6.2347    3.6882    8.0668 C   0  0  0  0  0  0  0  0  0  0  0  0
   -7.5614    3.9940    8.0114 C   0  0  0  0  0  0  0  0  0  0  0  0
   -8.1324    4.1855    6.3658 S   0  0  0  0  0  0  0  0  0  0  0  0
   -8.4655    4.1324    9.1046 C   0  0  0  0  0  0  0  0  0  0  0  0
   -9.8136    4.3230    9.0522 C   0  0  0  0  0  0  0  0  0  0  0  0
  -10.4267    4.3762   10.3290 C   0  0  0  0  0  0  0  0  0  0  0  0
  -11.7842    4.5707   10.6340 C   0  0  0  0  0  0  0  0  0  0  0  0
  -12.7822    4.7267    9.5891 C   0  0  0  0  0  0  0  0  0  0  0  0
  -12.9436    3.5565    8.3117 S   0  0  0  0  0  0  0  0  0  0  0  0
  -14.2666    4.4069    7.5907 C   0  0  0  0  0  0  0  0  0  0  0  0
  -14.9637    3.8748    6.3876 C   0  0  0  0  0  0  0  0  0  0  0  0
  -16.0694    2.8941    6.7855 C   0  0  0  0  0  0  0  0  0  0  0  0
  -14.5583    5.5256    8.3120 C   0  0  0  0  0  0  0  0  0  0  0  0
  -15.8104    6.6255    7.9044 Cl  0  0  0  0  0  0  0  0  0  0  0  0
  -13.7184    5.7126    9.4429 C   0  0  0  0  0  0  0  0  0  0  0  0
  -13.8324    7.0924   10.4521 Cl  0  0  0  0  0  0  0  0  0  0  0  0
  -12.1324    4.5789   11.9804 C   0  0  0  0  0  0  0  0  0  0  0  0
  -11.1860    4.4314   13.0227 C   0  0  0  0  0  0  0  0  0  0  0  0
   -9.8232    4.2894   12.7182 C   0  0  0  0  0  0  0  0  0  0  0  0
   -8.8136    4.2110   13.7606 C   0  0  0  0  0  0  0  0  0  0  0  0
   -7.6247    2.9434   13.7825 S   0  0  0  0  0  0  0  0  0  0  0  0
   -6.8604    3.5779   15.1996 C   0  0  0  0  0  0  0  0  0  0  0  0
   -5.6357    2.9425   15.7584 C   0  0  0  0  0  0  0  0  0  0  0  0
   -4.3996    3.3475   14.9515 C   0  0  0  0  0  0  0  0  0  0  0  0
   -7.4958    4.7099   15.6145 C   0  0  0  0  0  0  0  0  0  0  0  0
   -8.6069    5.0695   14.8048 C   0  0  0  0  0  0  0  0  0  0  0  0
   -9.5268    6.4923   15.0800 Cl  0  0  0  0  0  0  0  0  0  0  0  0
   -7.0203    5.6303   16.9828 Cl  0  0  0  0  0  0  0  0  0  0  0  0
   -9.4806    4.2371   11.3732 C   0  0  0  0  0  0  0  0  0  0  0  0
   -7.8685    4.0354   10.7486 S   0  0  0  0  0  0  0  0  0  0  0  0
  -11.8150    4.3886   14.3010 C   0  0  0  0  0  0  0  0  0  0  0  0
  -13.1565    4.5049   14.2275 C   0  0  0  0  0  0  0  0  0  0  0  0
  -13.7506    4.6772   12.6134 S   0  0  0  0  0  0  0  0  0  0  0  0
   12.8056   -6.3893   -2.5014 H   0  0  0  0  0  0  0  0  0  0  0  0
   12.2515   -4.3457   -4.0174 H   0  0  0  0  0  0  0  0  0  0  0  0
   11.7333    0.9840   -5.7388 H   0  0  0  0  0  0  0  0  0  0  0  0
   11.1552    0.2961   -4.2082 H   0  0  0  0  0  0  0  0  0  0  0  0
    9.5311    1.9549   -5.0880 H   0  0  0  0  0  0  0  0  0  0  0  0
    9.3935    1.0422   -6.5941 H   0  0  0  0  0  0  0  0  0  0  0  0
    8.8139    0.3387   -5.0817 H   0  0  0  0  0  0  0  0  0  0  0  0
    8.5644  -13.4366   -4.9939 H   0  0  0  0  0  0  0  0  0  0  0  0
    8.5727  -12.4764   -3.5024 H   0  0  0  0  0  0  0  0  0  0  0  0
    6.3078  -11.5930   -4.0587 H   0  0  0  0  0  0  0  0  0  0  0  0
    6.2931  -12.5577   -5.5387 H   0  0  0  0  0  0  0  0  0  0  0  0
    6.2992  -13.3580   -3.9642 H   0  0  0  0  0  0  0  0  0  0  0  0
    7.9171   -8.1548   -8.2569 H   0  0  0  0  0  0  0  0  0  0  0  0
    5.5026   -4.6091  -12.3140 H   0  0  0  0  0  0  0  0  0  0  0  0
    4.4056   -5.8432  -11.6855 H   0  0  0  0  0  0  0  0  0  0  0  0
    8.9977   -7.6524  -12.5403 H   0  0  0  0  0  0  0  0  0  0  0  0
    7.9430   -8.9392  -11.9070 H   0  0  0  0  0  0  0  0  0  0  0  0
    6.6212   -7.7247  -14.1774 H   0  0  0  0  0  0  0  0  0  0  0  0
    3.8996   -3.5099  -10.5470 H   0  0  0  0  0  0  0  0  0  0  0  0
   -1.0488   -3.1975  -12.1248 H   0  0  0  0  0  0  0  0  0  0  0  0
   -1.1889   -1.5178  -12.6785 H   0  0  0  0  0  0  0  0  0  0  0  0
   -0.3039   -2.9833  -14.4848 H   0  0  0  0  0  0  0  0  0  0  0  0
    0.9054   -1.7878  -14.0074 H   0  0  0  0  0  0  0  0  0  0  0  0
    1.0474   -3.4589  -13.4502 H   0  0  0  0  0  0  0  0  0  0  0  0
    8.3575   -4.1885   -1.6442 H   0  0  0  0  0  0  0  0  0  0  0  0
    9.1606   -4.1326   -3.2254 H   0  0  0  0  0  0  0  0  0  0  0  0
    9.3040   -6.4117   -2.2363 H   0  0  0  0  0  0  0  0  0  0  0  0
    8.3274   -6.4458   -3.7086 H   0  0  0  0  0  0  0  0  0  0  0  0
    7.5454   -6.4914   -2.1282 H   0  0  0  0  0  0  0  0  0  0  0  0
    3.6782   -1.1777   -3.8280 H   0  0  0  0  0  0  0  0  0  0  0  0
    2.6315   -0.0431   -2.2091 H   0  0  0  0  0  0  0  0  0  0  0  0
    5.2184   -1.6826    2.6909 H   0  0  0  0  0  0  0  0  0  0  0  0
    4.4487   -2.7499    1.4990 H   0  0  0  0  0  0  0  0  0  0  0  0
    6.8273   -2.3553    0.9163 H   0  0  0  0  0  0  0  0  0  0  0  0
    5.7694   -1.6703   -0.3194 H   0  0  0  0  0  0  0  0  0  0  0  0
    6.5412   -0.6117    0.8672 H   0  0  0  0  0  0  0  0  0  0  0  0
   -5.9653    1.8059   -5.1688 H   0  0  0  0  0  0  0  0  0  0  0  0
   -6.2908    3.5466   -5.0604 H   0  0  0  0  0  0  0  0  0  0  0  0
   -5.6118    2.8993   -7.3695 H   0  0  0  0  0  0  0  0  0  0  0  0
   -4.4174    3.9855   -6.6528 H   0  0  0  0  0  0  0  0  0  0  0  0
   -4.0881    2.2528   -6.7477 H   0  0  0  0  0  0  0  0  0  0  0  0
   -3.4323    2.8477    0.1202 H   0  0  0  0  0  0  0  0  0  0  0  0
   -4.8825    3.0809    1.9318 H   0  0  0  0  0  0  0  0  0  0  0  0
  -10.8198    2.8698    1.2997 H   0  0  0  0  0  0  0  0  0  0  0  0
  -10.4966    4.2373    0.2167 H   0  0  0  0  0  0  0  0  0  0  0  0
  -12.5393    4.6329    1.5940 H   0  0  0  0  0  0  0  0  0  0  0  0
  -11.5826    4.4536    3.0706 H   0  0  0  0  0  0  0  0  0  0  0  0
  -11.2843    5.8131    1.9836 H   0  0  0  0  0  0  0  0  0  0  0  0
   -0.5152    0.5720    9.6329 H   0  0  0  0  0  0  0  0  0  0  0  0
   -0.2751    1.9202   10.7620 H   0  0  0  0  0  0  0  0  0  0  0  0
    1.8043    1.4435    9.4738 H   0  0  0  0  0  0  0  0  0  0  0  0
    1.1873    3.0534    9.0899 H   0  0  0  0  0  0  0  0  0  0  0  0
    0.9369    1.7205    7.9585 H   0  0  0  0  0  0  0  0  0  0  0  0
   -5.7233    3.5061    8.9943 H   0  0  0  0  0  0  0  0  0  0  0  0
  -10.3472    4.4159    8.1238 H   0  0  0  0  0  0  0  0  0  0  0  0
  -15.3984    4.7110    5.8367 H   0  0  0  0  0  0  0  0  0  0  0  0
  -14.2415    3.3679    5.7453 H   0  0  0  0  0  0  0  0  0  0  0  0
  -15.6494    2.0546    7.3344 H   0  0  0  0  0  0  0  0  0  0  0  0
  -16.5704    2.5164    5.8983 H   0  0  0  0  0  0  0  0  0  0  0  0
  -16.8030    3.3898    7.4160 H   0  0  0  0  0  0  0  0  0  0  0  0
   -5.5186    3.2587   16.7963 H   0  0  0  0  0  0  0  0  0  0  0  0
   -5.7450    1.8567   15.7326 H   0  0  0  0  0  0  0  0  0  0  0  0
   -4.2678    4.4262   14.9795 H   0  0  0  0  0  0  0  0  0  0  0  0
   -4.5085    3.0384   13.9146 H   0  0  0  0  0  0  0  0  0  0  0  0
   -3.5120    2.8773   15.3660 H   0  0  0  0  0  0  0  0  0  0  0  0
  -11.2778    4.2564   15.2216 H   0  0  0  0  0  0  0  0  0  0  0  0
  -13.8628    4.5011   15.0345 H   0  0  0  0  0  0  0  0  0  0  0  0
  1  2  2  0  0  0  0
  2  3  1  0  0  0  0
  3  4  2  0  0  0  0
  4  5  1  0  0  0  0
  5  6  1  0  0  0  0
  6  7  1  0  0  0  0
  7  8  1  0  0  0  0
  8  9  1  0  0  0  0
  7 10  2  0  0  0  0
 10 11  1  0  0  0  0
 10 12  1  0  0  0  0
 12 13  1  0  0  0  0
  4 14  1  0  0  0  0
 14 15  2  0  0  0  0
 15 16  1  0  0  0  0
 16 17  1  0  0  0  0
 17 18  1  0  0  0  0
 18 19  1  0  0  0  0
 19 20  1  0  0  0  0
 20 21  1  0  0  0  0
 19 22  2  0  0  0  0
 22 23  1  0  0  0  0
 23 24  1  0  0  0  0
 22 25  1  0  0  0  0
 16 26  2  0  0  0  0
 26 27  1  0  0  0  0
 15 28  1  0  0  0  0
 28 29  2  0  0  0  0
 29 30  1  0  0  0  0
 29 31  1  0  0  0  0
 31 32  2  0  0  0  0
 32 33  1  0  0  0  0
 33 34  1  0  0  0  0
 34 35  2  0  0  0  0
 35 36  1  0  0  0  0
 36 37  1  0  0  0  0
 32 38  1  0  0  0  0
 38 39  2  0  0  0  0
 39 40  1  0  0  0  0
 40 41  2  0  0  0  0
 41 42  1  0  0  0  0
 42 43  1  0  0  0  0
 43 44  1  0  0  0  0
 44 45  1  0  0  0  0
 45 46  1  0  0  0  0
 44 47  2  0  0  0  0
 47 48  1  0  0  0  0
 47 49  1  0  0  0  0
 49 50  1  0  0  0  0
 41 51  1  0  0  0  0
 51 52  2  0  0  0  0
 52 53  1  0  0  0  0
 53 54  1  0  0  0  0
 54 55  1  0  0  0  0
 55 56  1  0  0  0  0
 56 57  1  0  0  0  0
 57 58  1  0  0  0  0
 56 59  2  0  0  0  0
 59 60  1  0  0  0  0
 60 61  1  0  0  0  0
 59 62  1  0  0  0  0
 53 63  2  0  0  0  0
 63 64  1  0  0  0  0
 52 65  1  0  0  0  0
 65 66  2  0  0  0  0
 66 67  1  0  0  0  0
 66 68  1  0  0  0  0
 68 69  2  0  0  0  0
 69 70  1  0  0  0  0
 70 71  2  0  0  0  0
 71 72  1  0  0  0  0
 72 73  1  0  0  0  0
 73 74  1  0  0  0  0
 74 75  1  0  0  0  0
 75 76  1  0  0  0  0
 74 77  2  0  0  0  0
 77 78  1  0  0  0  0
 77 79  1  0  0  0  0
 79 80  1  0  0  0  0
 71 81  1  0  0  0  0
 81 82  2  0  0  0  0
 82 83  1  0  0  0  0
 83 84  1  0  0  0  0
 84 85  1  0  0  0  0
 85 86  1  0  0  0  0
 86 87  1  0  0  0  0
 87 88  1  0  0  0  0
 86 89  2  0  0  0  0
 89 90  1  0  0  0  0
 90 91  1  0  0  0  0
 89 92  1  0  0  0  0
 83 93  2  0  0  0  0
 93 94  1  0  0  0  0
 82 95  1  0  0  0  0
 95 96  2  0  0  0  0
 96 97  1  0  0  0  0
 96 98  1  0  0  0  0
 98 99  2  0  0  0  0
 99100  1  0  0  0  0
100101  2  0  0  0  0
101102  1  0  0  0  0
102103  1  0  0  0  0
103104  1  0  0  0  0
104105  1  0  0  0  0
105106  1  0  0  0  0
104107  2  0  0  0  0
107108  1  0  0  0  0
107109  1  0  0  0  0
109110  1  0  0  0  0
101111  1  0  0  0  0
111112  2  0  0  0  0
112113  1  0  0  0  0
113114  1  0  0  0  0
114115  1  0  0  0  0
115116  1  0  0  0  0
116117  1  0  0  0  0
117118  1  0  0  0  0
116119  2  0  0  0  0
119120  1  0  0  0  0
120121  1  0  0  0  0
119122  1  0  0  0  0
113123  2  0  0  0  0
123124  1  0  0  0  0
112125  1  0  0  0  0
125126  2  0  0  0  0
126127  1  0  0  0  0
126128  1  0  0  0  0
128129  2  0  0  0  0
129130  1  0  0  0  0
130131  2  0  0  0  0
131132  1  0  0  0  0
132133  1  0  0  0  0
133134  1  0  0  0  0
134135  1  0  0  0  0
135136  1  0  0  0  0
134137  2  0  0  0  0
137138  1  0  0  0  0
137139  1  0  0  0  0
139140  1  0  0  0  0
131141  1  0  0  0  0
141142  2  0  0  0  0
142143  1  0  0  0  0
143144  1  0  0  0  0
144145  1  0  0  0  0
145146  1  0  0  0  0
146147  1  0  0  0  0
147148  1  0  0  0  0
146149  2  0  0  0  0
149150  1  0  0  0  0
150151  1  0  0  0  0
149152  1  0  0  0  0
143153  2  0  0  0  0
153154  1  0  0  0  0
142155  1  0  0  0  0
155156  2  0  0  0  0
156157  1  0  0  0  0
 27  1  1  0  0  0  0
 35 31  1  0  0  0  0
 64 38  1  0  0  0  0
 94 68  1  0  0  0  0
124 98  1  0  0  0  0
154128  1  0  0  0  0
 26  3  1  0  0  0  0
 37 34  1  0  0  0  0
 63 40  1  0  0  0  0
 93 70  1  0  0  0  0
123100  1  0  0  0  0
153130  1  0  0  0  0
 12  5  2  0  0  0  0
 30 14  1  0  0  0  0
 49 42  2  0  0  0  0
 67 51  1  0  0  0  0
 79 72  2  0  0  0  0
 97 81  1  0  0  0  0
109102  2  0  0  0  0
127111  1  0  0  0  0
139132  2  0  0  0  0
157141  1  0  0  0  0
 23 17  2  0  0  0  0
 60 54  2  0  0  0  0
 90 84  2  0  0  0  0
120114  2  0  0  0  0
150144  2  0  0  0  0
  1158  1  0  0  0  0
  2159  1  0  0  0  0
  8160  1  0  0  0  0
  8161  1  0  0  0  0
  9162  1  0  0  0  0
  9163  1  0  0  0  0
  9164  1  0  0  0  0
 20165  1  0  0  0  0
 20166  1  0  0  0  0
 21167  1  0  0  0  0
 21168  1  0  0  0  0
 21169  1  0  0  0  0
 28170  1  0  0  0  0
 33171  1  0  0  0  0
 33172  1  0  0  0  0
 36173  1  0  0  0  0
 36174  1  0  0  0  0
 37175  1  0  0  0  0
 39176  1  0  0  0  0
 45177  1  0  0  0  0
 45178  1  0  0  0  0
 46179  1  0  0  0  0
 46180  1  0  0  0  0
 46181  1  0  0  0  0
 57182  1  0  0  0  0
 57183  1  0  0  0  0
 58184  1  0  0  0  0
 58185  1  0  0  0  0
 58186  1  0  0  0  0
 65187  1  0  0  0  0
 69188  1  0  0  0  0
 75189  1  0  0  0  0
 75190  1  0  0  0  0
 76191  1  0  0  0  0
 76192  1  0  0  0  0
 76193  1  0  0  0  0
 87194  1  0  0  0  0
 87195  1  0  0  0  0
 88196  1  0  0  0  0
 88197  1  0  0  0  0
 88198  1  0  0  0  0
 95199  1  0  0  0  0
 99200  1  0  0  0  0
105201  1  0  0  0  0
105202  1  0  0  0  0
106203  1  0  0  0  0
106204  1  0  0  0  0
106205  1  0  0  0  0
117206  1  0  0  0  0
117207  1  0  0  0  0
118208  1  0  0  0  0
118209  1  0  0  0  0
118210  1  0  0  0  0
125211  1  0  0  0  0
129212  1  0  0  0  0
135213  1  0  0  0  0
135214  1  0  0  0  0
136215  1  0  0  0  0
136216  1  0  0  0  0
136217  1  0  0  0  0
147218  1  0  0  0  0
147219  1  0  0  0  0
148220  1  0  0  0  0
148221  1  0  0  0  0
148222  1  0  0  0  0
155223  1  0  0  0  0
156224  1  0  0  0  0
M  END
