
  xtb     03042204123D
 energy: -408.737629162730 gnorm: 0.000496982012 xtb: 6.4.1 (unknown)
242265  0     0  0            999 V2000
    3.9522    3.9681    4.3579 C   0  0  0  0  0  0  0  0  0  0  0  0
    3.5821    2.9587    2.8944 S   0  0  0  0  0  0  0  0  0  0  0  0
    2.7569    1.7411    3.9455 C   0  0  0  0  0  0  0  0  0  0  0  0
    2.0829    2.4981    4.9688 N   0  0  0  0  0  0  0  0  0  0  0  0
    2.8177    3.7034    5.3446 C   0  0  0  0  0  0  0  0  0  0  0  0
    3.3180    3.4311    6.6829 N   0  0  0  0  0  0  0  0  0  0  0  0
    2.2553    2.6786    7.3238 C   0  0  0  0  0  0  0  0  0  0  0  0
    1.7842    1.7446    6.1902 C   0  0  0  0  0  0  0  0  0  0  0  0
    0.3232    1.4361    6.2820 C   0  0  0  0  0  0  0  0  0  0  0  0
   -0.1737    0.2476    6.5901 C   0  0  0  0  0  0  0  0  0  0  0  0
   -1.6288   -0.0216    6.6946 C   0  0  0  0  0  0  0  0  0  0  0  0
   -2.2869   -1.0054    5.2786 S   0  0  0  0  0  0  0  0  0  0  0  0
   -3.8020   -1.2029    6.3210 C   0  0  0  0  0  0  0  0  0  0  0  0
   -3.3878   -1.4234    7.6624 N   0  0  0  0  0  0  0  0  0  0  0  0
   -2.0426   -0.8640    7.9043 C   0  0  0  0  0  0  0  0  0  0  0  0
   -1.1569   -1.9827    8.1569 N   0  0  0  0  0  0  0  0  0  0  0  0
   -2.0097   -2.9393    8.8374 C   0  0  0  0  0  0  0  0  0  0  0  0
   -3.3807   -2.8160    8.1386 C   0  0  0  0  0  0  0  0  0  0  0  0
   -4.5536   -3.0311    9.0488 C   0  0  0  0  0  0  0  0  0  0  0  0
   -5.7810   -3.3622    8.6582 C   0  0  0  0  0  0  0  0  0  0  0  0
   -6.1915   -3.6019    7.2821 C   0  0  0  0  0  0  0  0  0  0  0  0
   -7.1325   -2.9067    6.5967 C   0  0  0  0  0  0  0  0  0  0  0  0
   -7.2330   -3.2711    5.2237 C   0  0  0  0  0  0  0  0  0  0  0  0
   -7.9558   -2.6143    4.2138 C   0  0  0  0  0  0  0  0  0  0  0  0
   -8.8808   -1.5219    4.5395 C   0  0  0  0  0  0  0  0  0  0  0  0
   -8.8111   -0.2883    3.9013 C   0  0  0  0  0  0  0  0  0  0  0  0
   -9.6855    0.7334    4.2205 C   0  0  0  0  0  0  0  0  0  0  0  0
  -10.6699    0.5536    5.1847 C   0  0  0  0  0  0  0  0  0  0  0  0
  -11.8316    1.7669    5.7152 S   0  0  0  0  0  0  0  0  0  0  0  0
  -11.6777    3.1132    4.4923 C   0  0  0  0  0  0  0  0  0  0  0  0
  -12.2812    2.7462    3.1499 C   0  0  0  0  0  0  0  0  0  0  0  0
  -10.7283   -0.6905    5.8168 C   0  0  0  0  0  0  0  0  0  0  0  0
  -11.6689   -0.9006    6.7605 F   0  0  0  0  0  0  0  0  0  0  0  0
   -9.8591   -1.7129    5.5145 C   0  0  0  0  0  0  0  0  0  0  0  0
   -7.7124   -3.0272    2.9126 C   0  0  0  0  0  0  0  0  0  0  0  0
   -6.8680   -4.1204    2.5983 C   0  0  0  0  0  0  0  0  0  0  0  0
   -6.1635   -4.7949    3.6085 C   0  0  0  0  0  0  0  0  0  0  0  0
   -5.2182   -5.8707    3.2867 C   0  0  0  0  0  0  0  0  0  0  0  0
   -4.2459   -5.6972    2.3045 C   0  0  0  0  0  0  0  0  0  0  0  0
   -3.3848   -6.7190    1.9556 C   0  0  0  0  0  0  0  0  0  0  0  0
   -3.4582   -7.9558    2.5876 C   0  0  0  0  0  0  0  0  0  0  0  0
   -2.4664   -9.3593    2.2145 S   0  0  0  0  0  0  0  0  0  0  0  0
   -1.4419   -8.8389    0.7952 C   0  0  0  0  0  0  0  0  0  0  0  0
   -0.2224   -8.0392    1.2125 C   0  0  0  0  0  0  0  0  0  0  0  0
   -4.4087   -8.1010    3.6015 C   0  0  0  0  0  0  0  0  0  0  0  0
   -5.2762   -7.0922    3.9543 C   0  0  0  0  0  0  0  0  0  0  0  0
   -4.4960   -9.2800    4.2507 F   0  0  0  0  0  0  0  0  0  0  0  0
   -6.3511   -4.3290    4.9003 C   0  0  0  0  0  0  0  0  0  0  0  0
   -5.4353   -4.8395    6.2959 S   0  0  0  0  0  0  0  0  0  0  0  0
   -6.7570   -4.3185    1.2009 C   0  0  0  0  0  0  0  0  0  0  0  0
   -7.3887   -3.3654    0.4588 C   0  0  0  0  0  0  0  0  0  0  0  0
   -8.3133   -2.2598    1.4603 S   0  0  0  0  0  0  0  0  0  0  0  0
   -7.0633   -3.0505   -0.8951 C   0  0  0  0  0  0  0  0  0  0  0  0
   -7.1672   -1.8384   -1.5093 C   0  0  0  0  0  0  0  0  0  0  0  0
   -6.2776   -1.6802   -2.6056 C   0  0  0  0  0  0  0  0  0  0  0  0
   -5.9568   -0.4773   -3.2596 C   0  0  0  0  0  0  0  0  0  0  0  0
   -6.8000    0.7053   -3.0564 C   0  0  0  0  0  0  0  0  0  0  0  0
   -8.1825    0.5897   -3.1940 C   0  0  0  0  0  0  0  0  0  0  0  0
   -9.0170    1.6673   -2.9777 C   0  0  0  0  0  0  0  0  0  0  0  0
   -8.4997    2.9000   -2.5956 C   0  0  0  0  0  0  0  0  0  0  0  0
   -9.4653    4.3397   -2.2742 S   0  0  0  0  0  0  0  0  0  0  0  0
  -11.0981    3.6587   -1.8150 C   0  0  0  0  0  0  0  0  0  0  0  0
  -11.0401    2.8531   -0.5312 C   0  0  0  0  0  0  0  0  0  0  0  0
   -7.1132    3.0083   -2.4810 C   0  0  0  0  0  0  0  0  0  0  0  0
   -6.5786    4.1889   -2.1176 F   0  0  0  0  0  0  0  0  0  0  0  0
   -6.2681    1.9436   -2.7047 C   0  0  0  0  0  0  0  0  0  0  0  0
   -4.7854   -0.4778   -4.0044 C   0  0  0  0  0  0  0  0  0  0  0  0
   -4.0165   -1.6470   -4.2314 C   0  0  0  0  0  0  0  0  0  0  0  0
   -4.4034   -2.8751   -3.6698 C   0  0  0  0  0  0  0  0  0  0  0  0
   -3.5902   -4.0850   -3.8507 C   0  0  0  0  0  0  0  0  0  0  0  0
   -3.2483   -4.5426   -5.1190 C   0  0  0  0  0  0  0  0  0  0  0  0
   -2.4904   -5.6864   -5.2884 C   0  0  0  0  0  0  0  0  0  0  0  0
   -2.0451   -6.4160   -4.1914 C   0  0  0  0  0  0  0  0  0  0  0  0
   -1.0656   -7.8788   -4.2494 S   0  0  0  0  0  0  0  0  0  0  0  0
   -1.0846   -8.3715   -6.0062 C   0  0  0  0  0  0  0  0  0  0  0  0
   -2.4259   -8.9376   -6.4326 C   0  0  0  0  0  0  0  0  0  0  0  0
   -2.3786   -5.9309   -2.9260 C   0  0  0  0  0  0  0  0  0  0  0  0
   -3.1297   -4.7944   -2.7428 C   0  0  0  0  0  0  0  0  0  0  0  0
   -1.9456   -6.5963   -1.8317 F   0  0  0  0  0  0  0  0  0  0  0  0
   -5.5014   -2.8436   -2.8265 C   0  0  0  0  0  0  0  0  0  0  0  0
   -5.9971   -4.1407   -1.7682 S   0  0  0  0  0  0  0  0  0  0  0  0
   -2.7683   -1.3547   -4.8405 C   0  0  0  0  0  0  0  0  0  0  0  0
   -2.5605   -0.0224   -5.0336 C   0  0  0  0  0  0  0  0  0  0  0  0
   -3.9668    0.9347   -4.6225 S   0  0  0  0  0  0  0  0  0  0  0  0
   -1.2772    0.6007   -5.1977 C   0  0  0  0  0  0  0  0  0  0  0  0
   -0.1691    0.1478   -5.8438 C   0  0  0  0  0  0  0  0  0  0  0  0
    1.0232    0.8226   -5.4599 C   0  0  0  0  0  0  0  0  0  0  0  0
    2.3456    0.5166   -5.8265 C   0  0  0  0  0  0  0  0  0  0  0  0
    2.6253   -0.4500   -6.8951 C   0  0  0  0  0  0  0  0  0  0  0  0
    3.5110   -1.5089   -6.7055 C   0  0  0  0  0  0  0  0  0  0  0  0
    3.7638   -2.4036   -7.7239 C   0  0  0  0  0  0  0  0  0  0  0  0
    3.1446   -2.2803   -8.9644 C   0  0  0  0  0  0  0  0  0  0  0  0
    3.5001   -3.5001  -10.1995 S   0  0  0  0  0  0  0  0  0  0  0  0
    3.8250   -2.4841  -11.6880 C   0  0  0  0  0  0  0  0  0  0  0  0
    4.9680   -1.5138  -11.4680 C   0  0  0  0  0  0  0  0  0  0  0  0
    2.2436   -1.2335   -9.1327 C   0  0  0  0  0  0  0  0  0  0  0  0
    1.5792   -1.0772  -10.2993 F   0  0  0  0  0  0  0  0  0  0  0  0
    1.9890   -0.3241   -8.1268 C   0  0  0  0  0  0  0  0  0  0  0  0
    3.3517    1.1368   -5.0987 C   0  0  0  0  0  0  0  0  0  0  0  0
    3.0926    2.0464   -4.0427 C   0  0  0  0  0  0  0  0  0  0  0  0
    1.7757    2.4121   -3.7298 C   0  0  0  0  0  0  0  0  0  0  0  0
    1.4528    3.3031   -2.6092 C   0  0  0  0  0  0  0  0  0  0  0  0
    1.9646    3.0599   -1.3377 C   0  0  0  0  0  0  0  0  0  0  0  0
    1.6213    3.8554   -0.2623 C   0  0  0  0  0  0  0  0  0  0  0  0
    0.7475    4.9252   -0.4223 C   0  0  0  0  0  0  0  0  0  0  0  0
    0.2290    6.0154    0.8586 S   0  0  0  0  0  0  0  0  0  0  0  0
    0.7285    5.1625    2.3940 C   0  0  0  0  0  0  0  0  0  0  0  0
   -0.1090    3.9301    2.6757 C   0  0  0  0  0  0  0  0  0  0  0  0
    0.2517    5.1662   -1.7056 C   0  0  0  0  0  0  0  0  0  0  0  0
    0.5819    4.3766   -2.7840 C   0  0  0  0  0  0  0  0  0  0  0  0
   -0.5800    6.2085   -1.9017 F   0  0  0  0  0  0  0  0  0  0  0  0
    0.7737    1.7980   -4.4645 C   0  0  0  0  0  0  0  0  0  0  0  0
   -0.9281    1.9553   -4.1367 S   0  0  0  0  0  0  0  0  0  0  0  0
    4.2827    2.4559   -3.3912 C   0  0  0  0  0  0  0  0  0  0  0  0
    5.4101    1.9029   -3.9140 C   0  0  0  0  0  0  0  0  0  0  0  0
    5.0689    0.8758   -5.2944 S   0  0  0  0  0  0  0  0  0  0  0  0
    6.7288    1.9963   -3.3672 C   0  0  0  0  0  0  0  0  0  0  0  0
    7.9366    1.8296   -3.9690 C   0  0  0  0  0  0  0  0  0  0  0  0
    9.0340    1.9206   -3.0693 C   0  0  0  0  0  0  0  0  0  0  0  0
   10.4063    1.8472   -3.3548 C   0  0  0  0  0  0  0  0  0  0  0  0
   10.8968    1.5911   -4.7139 C   0  0  0  0  0  0  0  0  0  0  0  0
   11.8708    2.4016   -5.2886 C   0  0  0  0  0  0  0  0  0  0  0  0
   12.3441    2.1571   -6.5630 C   0  0  0  0  0  0  0  0  0  0  0  0
   11.8702    1.0811   -7.3044 C   0  0  0  0  0  0  0  0  0  0  0  0
   12.3815    0.6650   -8.9385 S   0  0  0  0  0  0  0  0  0  0  0  0
   13.9682    1.5455   -9.1413 C   0  0  0  0  0  0  0  0  0  0  0  0
   15.0585    0.9772   -8.2534 C   0  0  0  0  0  0  0  0  0  0  0  0
   10.8883    0.2804   -6.7182 C   0  0  0  0  0  0  0  0  0  0  0  0
   10.3996   -0.7691   -7.4096 F   0  0  0  0  0  0  0  0  0  0  0  0
   10.4014    0.5181   -5.4530 C   0  0  0  0  0  0  0  0  0  0  0  0
   11.2752    2.0119   -2.2840 C   0  0  0  0  0  0  0  0  0  0  0  0
   10.8410    2.1940   -0.9487 C   0  0  0  0  0  0  0  0  0  0  0  0
    9.4715    2.2537   -0.6605 C   0  0  0  0  0  0  0  0  0  0  0  0
    8.9579    2.3802    0.7104 C   0  0  0  0  0  0  0  0  0  0  0  0
    9.3603    3.4032    1.5664 C   0  0  0  0  0  0  0  0  0  0  0  0
    8.8496    3.4867    2.8433 C   0  0  0  0  0  0  0  0  0  0  0  0
    7.9229    2.5602    3.3273 C   0  0  0  0  0  0  0  0  0  0  0  0
    7.3541    2.8434    4.9749 S   0  0  0  0  0  0  0  0  0  0  0  0
    6.5818    1.2726    5.5338 C   0  0  0  0  0  0  0  0  0  0  0  0
    6.1206    1.4438    6.9682 C   0  0  0  0  0  0  0  0  0  0  0  0
    7.5253    1.5502    2.4579 C   0  0  0  0  0  0  0  0  0  0  0  0
    8.0314    1.4554    1.1775 C   0  0  0  0  0  0  0  0  0  0  0  0
    6.6315    0.6051    2.8279 F   0  0  0  0  0  0  0  0  0  0  0  0
    8.6044    2.1382   -1.7374 C   0  0  0  0  0  0  0  0  0  0  0  0
    6.8705    2.2678   -1.6391 S   0  0  0  0  0  0  0  0  0  0  0  0
   11.9393    2.2417   -0.0384 C   0  0  0  0  0  0  0  0  0  0  0  0
   13.1335    2.1177   -0.6503 C   0  0  0  0  0  0  0  0  0  0  0  0
   13.0174    1.9294   -2.3674 S   0  0  0  0  0  0  0  0  0  0  0  0
    4.9052    3.6493    4.7808 H   0  0  0  0  0  0  0  0  0  0  0  0
    4.0182    5.0090    4.0529 H   0  0  0  0  0  0  0  0  0  0  0  0
    2.0380    1.1840    3.3425 H   0  0  0  0  0  0  0  0  0  0  0  0
    3.5135    1.0451    4.3436 H   0  0  0  0  0  0  0  0  0  0  0  0
    2.0977    4.5467    5.3321 H   0  0  0  0  0  0  0  0  0  0  0  0
    3.5616    4.2766    7.1862 H   0  0  0  0  0  0  0  0  0  0  0  0
    2.6391    2.1247    8.1803 H   0  0  0  0  0  0  0  0  0  0  0  0
    1.4172    3.3129    7.6527 H   0  0  0  0  0  0  0  0  0  0  0  0
    2.3654    0.8121    6.2156 H   0  0  0  0  0  0  0  0  0  0  0  0
   -0.3315    2.2740    6.0839 H   0  0  0  0  0  0  0  0  0  0  0  0
    0.4806   -0.5914    6.7765 H   0  0  0  0  0  0  0  0  0  0  0  0
   -2.1921    0.9165    6.6870 H   0  0  0  0  0  0  0  0  0  0  0  0
   -4.3522   -0.2608    6.2377 H   0  0  0  0  0  0  0  0  0  0  0  0
   -4.4058   -2.0142    5.9222 H   0  0  0  0  0  0  0  0  0  0  0  0
   -2.0759   -0.2398    8.8086 H   0  0  0  0  0  0  0  0  0  0  0  0
   -0.8729   -2.3743    7.2589 H   0  0  0  0  0  0  0  0  0  0  0  0
   -2.0917   -2.6336    9.8848 H   0  0  0  0  0  0  0  0  0  0  0  0
   -1.5984   -3.9453    8.7870 H   0  0  0  0  0  0  0  0  0  0  0  0
   -3.4237   -3.5060    7.2863 H   0  0  0  0  0  0  0  0  0  0  0  0
   -4.3764   -2.8172   10.0933 H   0  0  0  0  0  0  0  0  0  0  0  0
   -6.5779   -3.4083    9.3903 H   0  0  0  0  0  0  0  0  0  0  0  0
   -7.6901   -2.0982    7.0343 H   0  0  0  0  0  0  0  0  0  0  0  0
   -8.0465   -0.1115    3.1607 H   0  0  0  0  0  0  0  0  0  0  0  0
   -9.5824    1.6789    3.7137 H   0  0  0  0  0  0  0  0  0  0  0  0
  -10.6294    3.3988    4.4159 H   0  0  0  0  0  0  0  0  0  0  0  0
  -12.2277    3.9349    4.9512 H   0  0  0  0  0  0  0  0  0  0  0  0
  -12.2196    3.5966    2.4735 H   0  0  0  0  0  0  0  0  0  0  0  0
  -13.3271    2.4749    3.2724 H   0  0  0  0  0  0  0  0  0  0  0  0
  -11.7585    1.9038    2.7017 H   0  0  0  0  0  0  0  0  0  0  0  0
   -9.9601   -2.6591    6.0228 H   0  0  0  0  0  0  0  0  0  0  0  0
   -4.1446   -4.7377    1.8199 H   0  0  0  0  0  0  0  0  0  0  0  0
   -2.6597   -6.5434    1.1783 H   0  0  0  0  0  0  0  0  0  0  0  0
   -2.0718   -8.2971    0.0930 H   0  0  0  0  0  0  0  0  0  0  0  0
   -1.1422   -9.7806    0.3354 H   0  0  0  0  0  0  0  0  0  0  0  0
   -0.5057   -7.1383    1.7519 H   0  0  0  0  0  0  0  0  0  0  0  0
    0.3394   -7.7504    0.3266 H   0  0  0  0  0  0  0  0  0  0  0  0
    0.4188   -8.6357    1.8574 H   0  0  0  0  0  0  0  0  0  0  0  0
   -6.0067   -7.2731    4.7271 H   0  0  0  0  0  0  0  0  0  0  0  0
   -6.1711   -5.1021    0.7563 H   0  0  0  0  0  0  0  0  0  0  0  0
   -7.7634   -1.0365   -1.1112 H   0  0  0  0  0  0  0  0  0  0  0  0
   -8.6081   -0.3567   -3.4927 H   0  0  0  0  0  0  0  0  0  0  0  0
  -10.0792    1.5415   -3.1132 H   0  0  0  0  0  0  0  0  0  0  0  0
  -11.4913    3.0808   -2.6503 H   0  0  0  0  0  0  0  0  0  0  0  0
  -11.7157    4.5478   -1.6888 H   0  0  0  0  0  0  0  0  0  0  0  0
  -10.4035    1.9782   -0.6477 H   0  0  0  0  0  0  0  0  0  0  0  0
  -12.0391    2.5210   -0.2552 H   0  0  0  0  0  0  0  0  0  0  0  0
  -10.6382    3.4640    0.2737 H   0  0  0  0  0  0  0  0  0  0  0  0
   -5.2082    2.0844   -2.5673 H   0  0  0  0  0  0  0  0  0  0  0  0
   -3.5929   -4.0033   -5.9888 H   0  0  0  0  0  0  0  0  0  0  0  0
   -2.2460   -6.0020   -6.2896 H   0  0  0  0  0  0  0  0  0  0  0  0
   -0.3071   -9.1332   -6.0646 H   0  0  0  0  0  0  0  0  0  0  0  0
   -0.7776   -7.5183   -6.6096 H   0  0  0  0  0  0  0  0  0  0  0  0
   -3.2181   -8.2008   -6.3179 H   0  0  0  0  0  0  0  0  0  0  0  0
   -2.3826   -9.2427   -7.4763 H   0  0  0  0  0  0  0  0  0  0  0  0
   -2.6762   -9.8052   -5.8266 H   0  0  0  0  0  0  0  0  0  0  0  0
   -3.3328   -4.4585   -1.7390 H   0  0  0  0  0  0  0  0  0  0  0  0
   -2.0087   -2.0963   -5.0106 H   0  0  0  0  0  0  0  0  0  0  0  0
   -0.1866   -0.6766   -6.5338 H   0  0  0  0  0  0  0  0  0  0  0  0
    3.9949   -1.6383   -5.7503 H   0  0  0  0  0  0  0  0  0  0  0  0
    4.4517   -3.2211   -7.5747 H   0  0  0  0  0  0  0  0  0  0  0  0
    2.9069   -1.9760  -11.9752 H   0  0  0  0  0  0  0  0  0  0  0  0
    4.0752   -3.2231  -12.4490 H   0  0  0  0  0  0  0  0  0  0  0  0
    5.1803   -0.9819  -12.3933 H   0  0  0  0  0  0  0  0  0  0  0  0
    4.7152   -0.7835  -10.7010 H   0  0  0  0  0  0  0  0  0  0  0  0
    5.8654   -2.0439  -11.1557 H   0  0  0  0  0  0  0  0  0  0  0  0
    1.2972    0.4827   -8.3144 H   0  0  0  0  0  0  0  0  0  0  0  0
    2.6205    2.2183   -1.1745 H   0  0  0  0  0  0  0  0  0  0  0  0
    2.0508    3.6293    0.6996 H   0  0  0  0  0  0  0  0  0  0  0  0
    1.7900    4.9309    2.3296 H   0  0  0  0  0  0  0  0  0  0  0  0
    0.5794    5.9203    3.1636 H   0  0  0  0  0  0  0  0  0  0  0  0
   -1.1546    4.2023    2.8001 H   0  0  0  0  0  0  0  0  0  0  0  0
   -0.0355    3.2175    1.8573 H   0  0  0  0  0  0  0  0  0  0  0  0
    0.2455    3.4456    3.5839 H   0  0  0  0  0  0  0  0  0  0  0  0
    0.1703    4.6120   -3.7529 H   0  0  0  0  0  0  0  0  0  0  0  0
    4.3030    3.1373   -2.5599 H   0  0  0  0  0  0  0  0  0  0  0  0
    8.0406    1.6712   -5.0273 H   0  0  0  0  0  0  0  0  0  0  0  0
   12.2496    3.2509   -4.7410 H   0  0  0  0  0  0  0  0  0  0  0  0
   13.0838    2.8219   -6.9783 H   0  0  0  0  0  0  0  0  0  0  0  0
   13.8044    2.6091   -8.9724 H   0  0  0  0  0  0  0  0  0  0  0  0
   14.2071    1.3956  -10.1942 H   0  0  0  0  0  0  0  0  0  0  0  0
   14.8011    1.0821   -7.2014 H   0  0  0  0  0  0  0  0  0  0  0  0
   15.9950    1.5006   -8.4362 H   0  0  0  0  0  0  0  0  0  0  0  0
   15.2026   -0.0793   -8.4671 H   0  0  0  0  0  0  0  0  0  0  0  0
    9.6620   -0.1499   -5.0399 H   0  0  0  0  0  0  0  0  0  0  0  0
   10.0634    4.1457    1.2209 H   0  0  0  0  0  0  0  0  0  0  0  0
    9.1602    4.2831    3.5024 H   0  0  0  0  0  0  0  0  0  0  0  0
    5.7385    1.0509    4.8842 H   0  0  0  0  0  0  0  0  0  0  0  0
    7.3339    0.4896    5.4412 H   0  0  0  0  0  0  0  0  0  0  0  0
    5.7247    0.4994    7.3361 H   0  0  0  0  0  0  0  0  0  0  0  0
    5.3372    2.1982    7.0276 H   0  0  0  0  0  0  0  0  0  0  0  0
    6.9495    1.7450    7.6050 H   0  0  0  0  0  0  0  0  0  0  0  0
    7.6960    0.6402    0.5556 H   0  0  0  0  0  0  0  0  0  0  0  0
   11.8189    2.3524    1.0239 H   0  0  0  0  0  0  0  0  0  0  0  0
   14.1083    2.1239   -0.2031 H   0  0  0  0  0  0  0  0  0  0  0  0
  1  2  1  0  0  0  0
  2  3  1  0  0  0  0
  3  4  1  0  0  0  0
  4  5  1  0  0  0  0
  5  6  1  0  0  0  0
  6  7  1  0  0  0  0
  7  8  1  0  0  0  0
  8  9  1  0  0  0  0
  9 10  2  0  0  0  0
 10 11  1  0  0  0  0
 11 12  1  0  0  0  0
 12 13  1  0  0  0  0
 13 14  1  0  0  0  0
 14 15  1  0  0  0  0
 15 16  1  0  0  0  0
 16 17  1  0  0  0  0
 17 18  1  0  0  0  0
 18 19  1  0  0  0  0
 19 20  2  0  0  0  0
 20 21  1  0  0  0  0
 21 22  2  0  0  0  0
 22 23  1  0  0  0  0
 23 24  2  0  0  0  0
 24 25  1  0  0  0  0
 25 26  2  0  0  0  0
 26 27  1  0  0  0  0
 27 28  2  0  0  0  0
 28 29  1  0  0  0  0
 29 30  1  0  0  0  0
 30 31  1  0  0  0  0
 28 32  1  0  0  0  0
 32 33  1  0  0  0  0
 32 34  2  0  0  0  0
 24 35  1  0  0  0  0
 35 36  2  0  0  0  0
 36 37  1  0  0  0  0
 37 38  1  0  0  0  0
 38 39  2  0  0  0  0
 39 40  1  0  0  0  0
 40 41  2  0  0  0  0
 41 42  1  0  0  0  0
 42 43  1  0  0  0  0
 43 44  1  0  0  0  0
 41 45  1  0  0  0  0
 45 46  2  0  0  0  0
 45 47  1  0  0  0  0
 37 48  2  0  0  0  0
 48 49  1  0  0  0  0
 36 50  1  0  0  0  0
 50 51  2  0  0  0  0
 51 52  1  0  0  0  0
 51 53  1  0  0  0  0
 53 54  2  0  0  0  0
 54 55  1  0  0  0  0
 55 56  2  0  0  0  0
 56 57  1  0  0  0  0
 57 58  2  0  0  0  0
 58 59  1  0  0  0  0
 59 60  2  0  0  0  0
 60 61  1  0  0  0  0
 61 62  1  0  0  0  0
 62 63  1  0  0  0  0
 60 64  1  0  0  0  0
 64 65  1  0  0  0  0
 64 66  2  0  0  0  0
 56 67  1  0  0  0  0
 67 68  2  0  0  0  0
 68 69  1  0  0  0  0
 69 70  1  0  0  0  0
 70 71  2  0  0  0  0
 71 72  1  0  0  0  0
 72 73  2  0  0  0  0
 73 74  1  0  0  0  0
 74 75  1  0  0  0  0
 75 76  1  0  0  0  0
 73 77  1  0  0  0  0
 77 78  2  0  0  0  0
 77 79  1  0  0  0  0
 69 80  2  0  0  0  0
 80 81  1  0  0  0  0
 68 82  1  0  0  0  0
 82 83  2  0  0  0  0
 83 84  1  0  0  0  0
 83 85  1  0  0  0  0
 85 86  2  0  0  0  0
 86 87  1  0  0  0  0
 87 88  2  0  0  0  0
 88 89  1  0  0  0  0
 89 90  2  0  0  0  0
 90 91  1  0  0  0  0
 91 92  2  0  0  0  0
 92 93  1  0  0  0  0
 93 94  1  0  0  0  0
 94 95  1  0  0  0  0
 92 96  1  0  0  0  0
 96 97  1  0  0  0  0
 96 98  2  0  0  0  0
 88 99  1  0  0  0  0
 99100  2  0  0  0  0
100101  1  0  0  0  0
101102  1  0  0  0  0
102103  2  0  0  0  0
103104  1  0  0  0  0
104105  2  0  0  0  0
105106  1  0  0  0  0
106107  1  0  0  0  0
107108  1  0  0  0  0
105109  1  0  0  0  0
109110  2  0  0  0  0
109111  1  0  0  0  0
101112  2  0  0  0  0
112113  1  0  0  0  0
100114  1  0  0  0  0
114115  2  0  0  0  0
115116  1  0  0  0  0
115117  1  0  0  0  0
117118  2  0  0  0  0
118119  1  0  0  0  0
119120  2  0  0  0  0
120121  1  0  0  0  0
121122  2  0  0  0  0
122123  1  0  0  0  0
123124  2  0  0  0  0
124125  1  0  0  0  0
125126  1  0  0  0  0
126127  1  0  0  0  0
124128  1  0  0  0  0
128129  1  0  0  0  0
128130  2  0  0  0  0
120131  1  0  0  0  0
131132  2  0  0  0  0
132133  1  0  0  0  0
133134  1  0  0  0  0
134135  2  0  0  0  0
135136  1  0  0  0  0
136137  2  0  0  0  0
137138  1  0  0  0  0
138139  1  0  0  0  0
139140  1  0  0  0  0
137141  1  0  0  0  0
141142  2  0  0  0  0
141143  1  0  0  0  0
133144  2  0  0  0  0
144145  1  0  0  0  0
132146  1  0  0  0  0
146147  2  0  0  0  0
147148  1  0  0  0  0
  5  1  1  0  0  0  0
 15 11  1  0  0  0  0
 49 21  1  0  0  0  0
 81 53  1  0  0  0  0
113 85  1  0  0  0  0
145117  1  0  0  0  0
  8  4  1  0  0  0  0
 18 14  1  0  0  0  0
 48 23  1  0  0  0  0
 80 55  1  0  0  0  0
112 87  1  0  0  0  0
144119  1  0  0  0  0
 34 25  1  0  0  0  0
 52 35  1  0  0  0  0
 66 57  1  0  0  0  0
 84 67  1  0  0  0  0
 98 89  1  0  0  0  0
116 99  1  0  0  0  0
130121  1  0  0  0  0
148131  1  0  0  0  0
 46 38  1  0  0  0  0
 78 70  1  0  0  0  0
110102  1  0  0  0  0
142134  1  0  0  0  0
  1149  1  0  0  0  0
  1150  1  0  0  0  0
  3151  1  0  0  0  0
  3152  1  0  0  0  0
  5153  1  0  0  0  0
  6154  1  0  0  0  0
  7155  1  0  0  0  0
  7156  1  0  0  0  0
  8157  1  0  0  0  0
  9158  1  0  0  0  0
 10159  1  0  0  0  0
 11160  1  0  0  0  0
 13161  1  0  0  0  0
 13162  1  0  0  0  0
 15163  1  0  0  0  0
 16164  1  0  0  0  0
 17165  1  0  0  0  0
 17166  1  0  0  0  0
 18167  1  0  0  0  0
 19168  1  0  0  0  0
 20169  1  0  0  0  0
 22170  1  0  0  0  0
 26171  1  0  0  0  0
 27172  1  0  0  0  0
 30173  1  0  0  0  0
 30174  1  0  0  0  0
 31175  1  0  0  0  0
 31176  1  0  0  0  0
 31177  1  0  0  0  0
 34178  1  0  0  0  0
 39179  1  0  0  0  0
 40180  1  0  0  0  0
 43181  1  0  0  0  0
 43182  1  0  0  0  0
 44183  1  0  0  0  0
 44184  1  0  0  0  0
 44185  1  0  0  0  0
 46186  1  0  0  0  0
 50187  1  0  0  0  0
 54188  1  0  0  0  0
 58189  1  0  0  0  0
 59190  1  0  0  0  0
 62191  1  0  0  0  0
 62192  1  0  0  0  0
 63193  1  0  0  0  0
 63194  1  0  0  0  0
 63195  1  0  0  0  0
 66196  1  0  0  0  0
 71197  1  0  0  0  0
 72198  1  0  0  0  0
 75199  1  0  0  0  0
 75200  1  0  0  0  0
 76201  1  0  0  0  0
 76202  1  0  0  0  0
 76203  1  0  0  0  0
 78204  1  0  0  0  0
 82205  1  0  0  0  0
 86206  1  0  0  0  0
 90207  1  0  0  0  0
 91208  1  0  0  0  0
 94209  1  0  0  0  0
 94210  1  0  0  0  0
 95211  1  0  0  0  0
 95212  1  0  0  0  0
 95213  1  0  0  0  0
 98214  1  0  0  0  0
103215  1  0  0  0  0
104216  1  0  0  0  0
107217  1  0  0  0  0
107218  1  0  0  0  0
108219  1  0  0  0  0
108220  1  0  0  0  0
108221  1  0  0  0  0
110222  1  0  0  0  0
114223  1  0  0  0  0
118224  1  0  0  0  0
122225  1  0  0  0  0
123226  1  0  0  0  0
126227  1  0  0  0  0
126228  1  0  0  0  0
127229  1  0  0  0  0
127230  1  0  0  0  0
127231  1  0  0  0  0
130232  1  0  0  0  0
135233  1  0  0  0  0
136234  1  0  0  0  0
139235  1  0  0  0  0
139236  1  0  0  0  0
140237  1  0  0  0  0
140238  1  0  0  0  0
140239  1  0  0  0  0
142240  1  0  0  0  0
146241  1  0  0  0  0
147242  1  0  0  0  0
M  END
