
  xtb     03022205553D
 energy: -397.348473976871 gnorm: 0.000615878884 xtb: 6.4.1 (unknown)
210233  0     0  0            999 V2000
    6.1360    0.5981    7.9687 C   0  0  0  0  0  0  0  0  0  0  0  0
    6.1764    0.2285    6.6725 C   0  0  0  0  0  0  0  0  0  0  0  0
    4.9059   -0.1825    6.1718 C   0  0  0  0  0  0  0  0  0  0  0  0
    4.5808   -0.6491    4.8864 C   0  0  0  0  0  0  0  0  0  0  0  0
    5.6010   -0.7742    3.8568 C   0  0  0  0  0  0  0  0  0  0  0  0
    7.0848   -1.6293    4.1693 S   0  0  0  0  0  0  0  0  0  0  0  0
    7.6901   -1.3360    2.5750 C   0  0  0  0  0  0  0  0  0  0  0  0
    9.0111   -1.8680    2.1416 C   0  0  0  0  0  0  0  0  0  0  0  0
    8.9912   -3.3941    2.0464 C   0  0  0  0  0  0  0  0  0  0  0  0
    6.7856   -0.6137    1.8577 C   0  0  0  0  0  0  0  0  0  0  0  0
    7.0479   -0.0751    0.2495 Cl  0  0  0  0  0  0  0  0  0  0  0  0
    5.6000   -0.2978    2.5750 C   0  0  0  0  0  0  0  0  0  0  0  0
    4.3628    0.6709    1.8921 Cl  0  0  0  0  0  0  0  0  0  0  0  0
    3.2531   -0.9961    4.6588 C   0  0  0  0  0  0  0  0  0  0  0  0
    2.2478   -0.8789    5.6518 C   0  0  0  0  0  0  0  0  0  0  0  0
    2.5689   -0.3868    6.9268 C   0  0  0  0  0  0  0  0  0  0  0  0
    1.5536   -0.2290    7.9557 C   0  0  0  0  0  0  0  0  0  0  0  0
    0.5332   -1.5534    8.4359 S   0  0  0  0  0  0  0  0  0  0  0  0
   -0.2986   -0.5923    9.6107 C   0  0  0  0  0  0  0  0  0  0  0  0
   -1.4331   -1.1473   10.3987 C   0  0  0  0  0  0  0  0  0  0  0  0
   -2.7383   -1.0572    9.6040 C   0  0  0  0  0  0  0  0  0  0  0  0
    0.1902    0.6793    9.6114 C   0  0  0  0  0  0  0  0  0  0  0  0
    1.2431    0.8881    8.6802 C   0  0  0  0  0  0  0  0  0  0  0  0
    1.9673    2.4236    8.4466 Cl  0  0  0  0  0  0  0  0  0  0  0  0
   -0.3941    1.9275   10.6337 Cl  0  0  0  0  0  0  0  0  0  0  0  0
    3.8995   -0.0615    7.1595 C   0  0  0  0  0  0  0  0  0  0  0  0
    4.5604    0.4949    8.6701 S   0  0  0  0  0  0  0  0  0  0  0  0
    0.9770   -1.2803    5.1724 C   0  0  0  0  0  0  0  0  0  0  0  0
    0.9952   -1.7149    3.8802 C   0  0  0  0  0  0  0  0  0  0  0  0
    2.5976   -1.6464    3.1842 S   0  0  0  0  0  0  0  0  0  0  0  0
   -0.1218   -2.1472    3.1004 C   0  0  0  0  0  0  0  0  0  0  0  0
   -1.3773   -2.4534    3.5387 C   0  0  0  0  0  0  0  0  0  0  0  0
   -2.2737   -2.7875    2.4928 C   0  0  0  0  0  0  0  0  0  0  0  0
   -3.6232   -3.1713    2.5905 C   0  0  0  0  0  0  0  0  0  0  0  0
   -4.2997   -3.2949    3.8700 C   0  0  0  0  0  0  0  0  0  0  0  0
   -4.3036   -2.0091    5.0399 S   0  0  0  0  0  0  0  0  0  0  0  0
   -5.3133   -2.8936    6.1321 C   0  0  0  0  0  0  0  0  0  0  0  0
   -5.7397   -2.3329    7.4457 C   0  0  0  0  0  0  0  0  0  0  0  0
   -5.8460   -0.8128    7.4217 C   0  0  0  0  0  0  0  0  0  0  0  0
   -5.6106   -4.1171    5.6101 C   0  0  0  0  0  0  0  0  0  0  0  0
   -6.5814   -5.2841    6.4108 Cl  0  0  0  0  0  0  0  0  0  0  0  0
   -5.0412   -4.3477    4.3302 C   0  0  0  0  0  0  0  0  0  0  0  0
   -5.2115   -5.8387    3.5048 Cl  0  0  0  0  0  0  0  0  0  0  0  0
   -4.2997   -3.3955    1.3967 C   0  0  0  0  0  0  0  0  0  0  0  0
   -3.6723   -3.3134    0.1313 C   0  0  0  0  0  0  0  0  0  0  0  0
   -2.3006   -3.0367    0.0386 C   0  0  0  0  0  0  0  0  0  0  0  0
   -1.6119   -3.0817   -1.2388 C   0  0  0  0  0  0  0  0  0  0  0  0
   -0.5423   -1.8211   -1.7608 S   0  0  0  0  0  0  0  0  0  0  0  0
   -0.1470   -2.6425   -3.2258 C   0  0  0  0  0  0  0  0  0  0  0  0
    0.8557   -2.0841   -4.1758 C   0  0  0  0  0  0  0  0  0  0  0  0
    2.2021   -2.7955   -4.0190 C   0  0  0  0  0  0  0  0  0  0  0  0
   -0.8209   -3.8260   -3.2990 C   0  0  0  0  0  0  0  0  0  0  0  0
   -1.6504   -4.0801   -2.1764 C   0  0  0  0  0  0  0  0  0  0  0  0
   -2.5319   -5.5419   -1.9957 Cl  0  0  0  0  0  0  0  0  0  0  0  0
   -0.6953   -4.9152   -4.6191 Cl  0  0  0  0  0  0  0  0  0  0  0  0
   -1.6453   -2.7318    1.2255 C   0  0  0  0  0  0  0  0  0  0  0  0
    0.0249   -2.2815    1.3650 S   0  0  0  0  0  0  0  0  0  0  0  0
   -4.6052   -3.4305   -0.9326 C   0  0  0  0  0  0  0  0  0  0  0  0
   -5.8780   -3.6066   -0.5149 C   0  0  0  0  0  0  0  0  0  0  0  0
   -6.0077   -3.6817    1.2270 S   0  0  0  0  0  0  0  0  0  0  0  0
   -7.1140   -3.6005   -1.3304 C   0  0  0  0  0  0  0  0  0  0  0  0
   -8.1143   -2.1055   -0.8642 S   0  0  0  0  0  0  0  0  0  0  0  0
   -7.3968   -1.0817   -2.2150 C   0  0  0  0  0  0  0  0  0  0  0  0
   -6.4090   -1.9275   -2.7868 N   0  0  0  0  0  0  0  0  0  0  0  0
   -6.9077   -3.2836   -2.8092 C   0  0  0  0  0  0  0  0  0  0  0  0
   -5.9166   -3.9508   -3.6124 N   0  0  0  0  0  0  0  0  0  0  0  0
   -5.7770   -3.0332   -4.7367 C   0  0  0  0  0  0  0  0  0  0  0  0
   -5.7081   -1.6551   -4.0359 C   0  0  0  0  0  0  0  0  0  0  0  0
   -4.2622   -1.3035   -3.7870 C   0  0  0  0  0  0  0  0  0  0  0  0
   -3.6394   -0.1416   -3.6270 C   0  0  0  0  0  0  0  0  0  0  0  0
   -4.1419    1.2601   -3.5538 C   0  0  0  0  0  0  0  0  0  0  0  0
   -5.2159    1.5282   -2.0655 S   0  0  0  0  0  0  0  0  0  0  0  0
   -6.4547    2.5082   -3.0035 C   0  0  0  0  0  0  0  0  0  0  0  0
   -5.6919    2.9340   -4.1105 N   0  0  0  0  0  0  0  0  0  0  0  0
   -4.9754    1.8423   -4.7012 C   0  0  0  0  0  0  0  0  0  0  0  0
   -4.2179    2.5339   -5.7146 N   0  0  0  0  0  0  0  0  0  0  0  0
   -5.1077    3.5569   -6.2628 C   0  0  0  0  0  0  0  0  0  0  0  0
   -6.1367    3.8471   -5.1328 C   0  0  0  0  0  0  0  0  0  0  0  0
   -6.1437    5.2655   -4.6287 C   0  0  0  0  0  0  0  0  0  0  0  0
   -5.2276    5.7964   -3.8276 C   0  0  0  0  0  0  0  0  0  0  0  0
   -4.0078    5.1175   -3.3936 C   0  0  0  0  0  0  0  0  0  0  0  0
   -3.7256    4.4989   -2.2241 C   0  0  0  0  0  0  0  0  0  0  0  0
   -2.4337    3.8974   -2.1967 C   0  0  0  0  0  0  0  0  0  0  0  0
   -1.9027    3.0250   -1.2324 C   0  0  0  0  0  0  0  0  0  0  0  0
   -2.6389    2.6837   -0.0239 C   0  0  0  0  0  0  0  0  0  0  0  0
   -3.1557    3.8952    1.1096 S   0  0  0  0  0  0  0  0  0  0  0  0
   -3.8731    2.7228    2.1627 C   0  0  0  0  0  0  0  0  0  0  0  0
   -4.5922    3.1244    3.4028 C   0  0  0  0  0  0  0  0  0  0  0  0
   -6.0566    3.4515    3.1008 C   0  0  0  0  0  0  0  0  0  0  0  0
   -3.7264    1.4728    1.6422 C   0  0  0  0  0  0  0  0  0  0  0  0
   -4.3248    0.0416    2.3747 Cl  0  0  0  0  0  0  0  0  0  0  0  0
   -3.0231    1.4465    0.4096 C   0  0  0  0  0  0  0  0  0  0  0  0
   -2.8112   -0.0013   -0.4731 Cl  0  0  0  0  0  0  0  0  0  0  0  0
   -0.6676    2.4493   -1.5111 C   0  0  0  0  0  0  0  0  0  0  0  0
    0.0614    2.7323   -2.6922 C   0  0  0  0  0  0  0  0  0  0  0  0
   -0.4653    3.6090   -3.6550 C   0  0  0  0  0  0  0  0  0  0  0  0
    0.2477    3.9003   -4.8865 C   0  0  0  0  0  0  0  0  0  0  0  0
    0.8460    2.6268   -5.9112 S   0  0  0  0  0  0  0  0  0  0  0  0
    1.4988    3.7444   -7.0602 C   0  0  0  0  0  0  0  0  0  0  0  0
    2.2748    3.2758   -8.2414 C   0  0  0  0  0  0  0  0  0  0  0  0
    3.7507    3.0870   -7.8797 C   0  0  0  0  0  0  0  0  0  0  0  0
    1.2599    5.0243   -6.6592 C   0  0  0  0  0  0  0  0  0  0  0  0
    0.5455    5.1173   -5.4340 C   0  0  0  0  0  0  0  0  0  0  0  0
    0.1895    6.6210   -4.6947 Cl  0  0  0  0  0  0  0  0  0  0  0  0
    1.7664    6.4095   -7.5358 Cl  0  0  0  0  0  0  0  0  0  0  0  0
   -1.7150    4.1543   -3.3899 C   0  0  0  0  0  0  0  0  0  0  0  0
   -2.6550    5.0974   -4.5018 S   0  0  0  0  0  0  0  0  0  0  0  0
    1.2897    2.0307   -2.7367 C   0  0  0  0  0  0  0  0  0  0  0  0
    1.4931    1.2214   -1.6587 C   0  0  0  0  0  0  0  0  0  0  0  0
    0.1901    1.3238   -0.4964 S   0  0  0  0  0  0  0  0  0  0  0  0
    2.5743    0.2998   -1.4936 C   0  0  0  0  0  0  0  0  0  0  0  0
    3.7566    0.2775   -2.1753 C   0  0  0  0  0  0  0  0  0  0  0  0
    4.5595   -0.8481   -1.8670 C   0  0  0  0  0  0  0  0  0  0  0  0
    5.8099   -1.2058   -2.3950 C   0  0  0  0  0  0  0  0  0  0  0  0
    6.4816   -0.3691   -3.3766 C   0  0  0  0  0  0  0  0  0  0  0  0
    6.8377    1.3018   -3.0583 S   0  0  0  0  0  0  0  0  0  0  0  0
    7.5846    1.5182   -4.6037 C   0  0  0  0  0  0  0  0  0  0  0  0
    8.1104    2.8437   -5.0327 C   0  0  0  0  0  0  0  0  0  0  0  0
    7.0323    3.6488   -5.7626 C   0  0  0  0  0  0  0  0  0  0  0  0
    7.5408    0.3578   -5.3174 C   0  0  0  0  0  0  0  0  0  0  0  0
    8.1702    0.1892   -6.9053 Cl  0  0  0  0  0  0  0  0  0  0  0  0
    6.9224   -0.7158   -4.6230 C   0  0  0  0  0  0  0  0  0  0  0  0
    6.6869   -2.2609   -5.3278 Cl  0  0  0  0  0  0  0  0  0  0  0  0
    6.3767   -2.3875   -1.9327 C   0  0  0  0  0  0  0  0  0  0  0  0
    5.7221   -3.2531   -1.0232 C   0  0  0  0  0  0  0  0  0  0  0  0
    4.4525   -2.9195   -0.5338 C   0  0  0  0  0  0  0  0  0  0  0  0
    3.6905   -3.8389    0.3030 C   0  0  0  0  0  0  0  0  0  0  0  0
    2.2282   -4.5726   -0.2917 S   0  0  0  0  0  0  0  0  0  0  0  0
    2.0315   -5.5238    1.1431 C   0  0  0  0  0  0  0  0  0  0  0  0
    0.9274   -6.5149    1.2769 C   0  0  0  0  0  0  0  0  0  0  0  0
   -0.4399   -5.8511    1.4264 C   0  0  0  0  0  0  0  0  0  0  0  0
    3.0264   -5.2473    2.0318 C   0  0  0  0  0  0  0  0  0  0  0  0
    3.9775   -4.3083    1.5489 C   0  0  0  0  0  0  0  0  0  0  0  0
    5.3396   -3.8126    2.4577 Cl  0  0  0  0  0  0  0  0  0  0  0  0
    3.1584   -5.9588    3.5890 Cl  0  0  0  0  0  0  0  0  0  0  0  0
    3.9190   -1.7063   -0.9404 C   0  0  0  0  0  0  0  0  0  0  0  0
    2.3966   -1.0628   -0.4179 S   0  0  0  0  0  0  0  0  0  0  0  0
    6.5082   -4.4067   -0.7356 C   0  0  0  0  0  0  0  0  0  0  0  0
    7.7027   -4.3934   -1.3618 C   0  0  0  0  0  0  0  0  0  0  0  0
    7.9496   -2.9997   -2.3563 S   0  0  0  0  0  0  0  0  0  0  0  0
    6.9470    0.9423    8.5801 H   0  0  0  0  0  0  0  0  0  0  0  0
    7.0730    0.2448    6.0815 H   0  0  0  0  0  0  0  0  0  0  0  0
    9.7789   -1.5620    2.8566 H   0  0  0  0  0  0  0  0  0  0  0  0
    9.2521   -1.4381    1.1678 H   0  0  0  0  0  0  0  0  0  0  0  0
    8.2363   -3.7172    1.3339 H   0  0  0  0  0  0  0  0  0  0  0  0
    8.7610   -3.8293    3.0162 H   0  0  0  0  0  0  0  0  0  0  0  0
    9.9605   -3.7607    1.7193 H   0  0  0  0  0  0  0  0  0  0  0  0
   -1.2290   -2.1903   10.6460 H   0  0  0  0  0  0  0  0  0  0  0  0
   -1.5282   -0.5787   11.3253 H   0  0  0  0  0  0  0  0  0  0  0  0
   -3.5592   -1.4637   10.1885 H   0  0  0  0  0  0  0  0  0  0  0  0
   -2.6519   -1.6182    8.6762 H   0  0  0  0  0  0  0  0  0  0  0  0
   -2.9616   -0.0208    9.3639 H   0  0  0  0  0  0  0  0  0  0  0  0
    0.0786   -1.2264    5.7579 H   0  0  0  0  0  0  0  0  0  0  0  0
   -1.6547   -2.4465    4.5763 H   0  0  0  0  0  0  0  0  0  0  0  0
   -5.0209   -2.6355    8.2139 H   0  0  0  0  0  0  0  0  0  0  0  0
   -6.7030   -2.7766    7.7077 H   0  0  0  0  0  0  0  0  0  0  0  0
   -6.5659   -0.4955    6.6715 H   0  0  0  0  0  0  0  0  0  0  0  0
   -4.8821   -0.3701    7.1823 H   0  0  0  0  0  0  0  0  0  0  0  0
   -6.1674   -0.4437    8.3918 H   0  0  0  0  0  0  0  0  0  0  0  0
    0.9777   -1.0170   -3.9807 H   0  0  0  0  0  0  0  0  0  0  0  0
    0.4959   -2.2119   -5.1994 H   0  0  0  0  0  0  0  0  0  0  0  0
    2.9476   -2.3354   -4.6622 H   0  0  0  0  0  0  0  0  0  0  0  0
    2.1084   -3.8443   -4.2863 H   0  0  0  0  0  0  0  0  0  0  0  0
    2.5449   -2.7359   -2.9896 H   0  0  0  0  0  0  0  0  0  0  0  0
   -4.3469   -3.3491   -1.9688 H   0  0  0  0  0  0  0  0  0  0  0  0
   -7.7467   -4.4694   -1.1452 H   0  0  0  0  0  0  0  0  0  0  0  0
   -8.2287   -0.8251   -2.8958 H   0  0  0  0  0  0  0  0  0  0  0  0
   -6.9611   -0.1826   -1.7805 H   0  0  0  0  0  0  0  0  0  0  0  0
   -7.9226   -3.3372   -3.2899 H   0  0  0  0  0  0  0  0  0  0  0  0
   -6.1876   -4.8850   -3.8956 H   0  0  0  0  0  0  0  0  0  0  0  0
   -4.8787   -3.2641   -5.3091 H   0  0  0  0  0  0  0  0  0  0  0  0
   -6.6478   -3.0638   -5.4131 H   0  0  0  0  0  0  0  0  0  0  0  0
   -6.2183   -0.8799   -4.6235 H   0  0  0  0  0  0  0  0  0  0  0  0
   -3.6332   -2.1832   -3.7338 H   0  0  0  0  0  0  0  0  0  0  0  0
   -2.5699   -0.1986   -3.4609 H   0  0  0  0  0  0  0  0  0  0  0  0
   -3.2897    1.9264   -3.4123 H   0  0  0  0  0  0  0  0  0  0  0  0
   -7.3073    1.8504   -3.2495 H   0  0  0  0  0  0  0  0  0  0  0  0
   -6.7919    3.3439   -2.3908 H   0  0  0  0  0  0  0  0  0  0  0  0
   -5.6544    1.0569   -5.1183 H   0  0  0  0  0  0  0  0  0  0  0  0
   -3.8356    1.9247   -6.4262 H   0  0  0  0  0  0  0  0  0  0  0  0
   -5.6336    3.2231   -7.1674 H   0  0  0  0  0  0  0  0  0  0  0  0
   -4.5204    4.4437   -6.5099 H   0  0  0  0  0  0  0  0  0  0  0  0
   -7.1533    3.5998   -5.4909 H   0  0  0  0  0  0  0  0  0  0  0  0
   -6.9924    5.8616   -4.9325 H   0  0  0  0  0  0  0  0  0  0  0  0
   -5.3418    6.8199   -3.4903 H   0  0  0  0  0  0  0  0  0  0  0  0
   -4.4279    4.4128   -1.4157 H   0  0  0  0  0  0  0  0  0  0  0  0
   -4.5423    2.2989    4.1154 H   0  0  0  0  0  0  0  0  0  0  0  0
   -4.1060    3.9979    3.8402 H   0  0  0  0  0  0  0  0  0  0  0  0
   -6.5517    2.5868    2.6667 H   0  0  0  0  0  0  0  0  0  0  0  0
   -6.5741    3.7292    4.0150 H   0  0  0  0  0  0  0  0  0  0  0  0
   -6.1209    4.2785    2.3976 H   0  0  0  0  0  0  0  0  0  0  0  0
    2.1864    4.0182   -9.0368 H   0  0  0  0  0  0  0  0  0  0  0  0
    1.8629    2.3295   -8.5960 H   0  0  0  0  0  0  0  0  0  0  0  0
    3.8541    2.3437   -7.0923 H   0  0  0  0  0  0  0  0  0  0  0  0
    4.1750    4.0256   -7.5322 H   0  0  0  0  0  0  0  0  0  0  0  0
    4.3085    2.7531   -8.7504 H   0  0  0  0  0  0  0  0  0  0  0  0
    1.9845    2.1011   -3.5521 H   0  0  0  0  0  0  0  0  0  0  0  0
    4.0505    1.0408   -2.8713 H   0  0  0  0  0  0  0  0  0  0  0  0
    8.9599    2.6861   -5.7001 H   0  0  0  0  0  0  0  0  0  0  0  0
    8.4505    3.3984   -4.1570 H   0  0  0  0  0  0  0  0  0  0  0  0
    6.6957    3.1117   -6.6456 H   0  0  0  0  0  0  0  0  0  0  0  0
    6.1790    3.8166   -5.1095 H   0  0  0  0  0  0  0  0  0  0  0  0
    7.4306    4.6119   -6.0702 H   0  0  0  0  0  0  0  0  0  0  0  0
    1.1333   -7.1374    2.1495 H   0  0  0  0  0  0  0  0  0  0  0  0
    0.9158   -7.1547    0.3910 H   0  0  0  0  0  0  0  0  0  0  0  0
   -0.4598   -5.2129    2.3064 H   0  0  0  0  0  0  0  0  0  0  0  0
   -0.6622   -5.2489    0.5496 H   0  0  0  0  0  0  0  0  0  0  0  0
   -1.2134   -6.6072    1.5314 H   0  0  0  0  0  0  0  0  0  0  0  0
    6.1815   -5.1949   -0.0819 H   0  0  0  0  0  0  0  0  0  0  0  0
    8.4820   -5.1286   -1.3101 H   0  0  0  0  0  0  0  0  0  0  0  0
  1  2  2  0  0  0  0
  2  3  1  0  0  0  0
  3  4  2  0  0  0  0
  4  5  1  0  0  0  0
  5  6  1  0  0  0  0
  6  7  1  0  0  0  0
  7  8  1  0  0  0  0
  8  9  1  0  0  0  0
  7 10  2  0  0  0  0
 10 11  1  0  0  0  0
 10 12  1  0  0  0  0
 12 13  1  0  0  0  0
  4 14  1  0  0  0  0
 14 15  2  0  0  0  0
 15 16  1  0  0  0  0
 16 17  1  0  0  0  0
 17 18  1  0  0  0  0
 18 19  1  0  0  0  0
 19 20  1  0  0  0  0
 20 21  1  0  0  0  0
 19 22  2  0  0  0  0
 22 23  1  0  0  0  0
 23 24  1  0  0  0  0
 22 25  1  0  0  0  0
 16 26  2  0  0  0  0
 26 27  1  0  0  0  0
 15 28  1  0  0  0  0
 28 29  2  0  0  0  0
 29 30  1  0  0  0  0
 29 31  1  0  0  0  0
 31 32  2  0  0  0  0
 32 33  1  0  0  0  0
 33 34  2  0  0  0  0
 34 35  1  0  0  0  0
 35 36  1  0  0  0  0
 36 37  1  0  0  0  0
 37 38  1  0  0  0  0
 38 39  1  0  0  0  0
 37 40  2  0  0  0  0
 40 41  1  0  0  0  0
 40 42  1  0  0  0  0
 42 43  1  0  0  0  0
 34 44  1  0  0  0  0
 44 45  2  0  0  0  0
 45 46  1  0  0  0  0
 46 47  1  0  0  0  0
 47 48  1  0  0  0  0
 48 49  1  0  0  0  0
 49 50  1  0  0  0  0
 50 51  1  0  0  0  0
 49 52  2  0  0  0  0
 52 53  1  0  0  0  0
 53 54  1  0  0  0  0
 52 55  1  0  0  0  0
 46 56  2  0  0  0  0
 56 57  1  0  0  0  0
 45 58  1  0  0  0  0
 58 59  2  0  0  0  0
 59 60  1  0  0  0  0
 59 61  1  0  0  0  0
 61 62  1  0  0  0  0
 62 63  1  0  0  0  0
 63 64  1  0  0  0  0
 64 65  1  0  0  0  0
 65 66  1  0  0  0  0
 66 67  1  0  0  0  0
 67 68  1  0  0  0  0
 68 69  1  0  0  0  0
 69 70  2  0  0  0  0
 70 71  1  0  0  0  0
 71 72  1  0  0  0  0
 72 73  1  0  0  0  0
 73 74  1  0  0  0  0
 74 75  1  0  0  0  0
 75 76  1  0  0  0  0
 76 77  1  0  0  0  0
 77 78  1  0  0  0  0
 78 79  1  0  0  0  0
 79 80  2  0  0  0  0
 80 81  1  0  0  0  0
 81 82  2  0  0  0  0
 82 83  1  0  0  0  0
 83 84  2  0  0  0  0
 84 85  1  0  0  0  0
 85 86  1  0  0  0  0
 86 87  1  0  0  0  0
 87 88  1  0  0  0  0
 88 89  1  0  0  0  0
 87 90  2  0  0  0  0
 90 91  1  0  0  0  0
 90 92  1  0  0  0  0
 92 93  1  0  0  0  0
 84 94  1  0  0  0  0
 94 95  2  0  0  0  0
 95 96  1  0  0  0  0
 96 97  1  0  0  0  0
 97 98  1  0  0  0  0
 98 99  1  0  0  0  0
 99100  1  0  0  0  0
100101  1  0  0  0  0
 99102  2  0  0  0  0
102103  1  0  0  0  0
103104  1  0  0  0  0
102105  1  0  0  0  0
 96106  2  0  0  0  0
106107  1  0  0  0  0
 95108  1  0  0  0  0
108109  2  0  0  0  0
109110  1  0  0  0  0
109111  1  0  0  0  0
111112  2  0  0  0  0
112113  1  0  0  0  0
113114  2  0  0  0  0
114115  1  0  0  0  0
115116  1  0  0  0  0
116117  1  0  0  0  0
117118  1  0  0  0  0
118119  1  0  0  0  0
117120  2  0  0  0  0
120121  1  0  0  0  0
120122  1  0  0  0  0
122123  1  0  0  0  0
114124  1  0  0  0  0
124125  2  0  0  0  0
125126  1  0  0  0  0
126127  1  0  0  0  0
127128  1  0  0  0  0
128129  1  0  0  0  0
129130  1  0  0  0  0
130131  1  0  0  0  0
129132  2  0  0  0  0
132133  1  0  0  0  0
133134  1  0  0  0  0
132135  1  0  0  0  0
126136  2  0  0  0  0
136137  1  0  0  0  0
125138  1  0  0  0  0
138139  2  0  0  0  0
139140  1  0  0  0  0
 27  1  1  0  0  0  0
 57 31  1  0  0  0  0
 65 61  1  0  0  0  0
 75 71  1  0  0  0  0
107 81  1  0  0  0  0
137111  1  0  0  0  0
 26  3  1  0  0  0  0
 56 33  1  0  0  0  0
 68 64  1  0  0  0  0
 78 74  1  0  0  0  0
106 83  1  0  0  0  0
136113  1  0  0  0  0
 12  5  2  0  0  0  0
 30 14  1  0  0  0  0
 42 35  2  0  0  0  0
 60 44  1  0  0  0  0
 92 85  2  0  0  0  0
110 94  1  0  0  0  0
122115  2  0  0  0  0
140124  1  0  0  0  0
 23 17  2  0  0  0  0
 53 47  2  0  0  0  0
103 97  2  0  0  0  0
133127  2  0  0  0  0
  1141  1  0  0  0  0
  2142  1  0  0  0  0
  8143  1  0  0  0  0
  8144  1  0  0  0  0
  9145  1  0  0  0  0
  9146  1  0  0  0  0
  9147  1  0  0  0  0
 20148  1  0  0  0  0
 20149  1  0  0  0  0
 21150  1  0  0  0  0
 21151  1  0  0  0  0
 21152  1  0  0  0  0
 28153  1  0  0  0  0
 32154  1  0  0  0  0
 38155  1  0  0  0  0
 38156  1  0  0  0  0
 39157  1  0  0  0  0
 39158  1  0  0  0  0
 39159  1  0  0  0  0
 50160  1  0  0  0  0
 50161  1  0  0  0  0
 51162  1  0  0  0  0
 51163  1  0  0  0  0
 51164  1  0  0  0  0
 58165  1  0  0  0  0
 61166  1  0  0  0  0
 63167  1  0  0  0  0
 63168  1  0  0  0  0
 65169  1  0  0  0  0
 66170  1  0  0  0  0
 67171  1  0  0  0  0
 67172  1  0  0  0  0
 68173  1  0  0  0  0
 69174  1  0  0  0  0
 70175  1  0  0  0  0
 71176  1  0  0  0  0
 73177  1  0  0  0  0
 73178  1  0  0  0  0
 75179  1  0  0  0  0
 76180  1  0  0  0  0
 77181  1  0  0  0  0
 77182  1  0  0  0  0
 78183  1  0  0  0  0
 79184  1  0  0  0  0
 80185  1  0  0  0  0
 82186  1  0  0  0  0
 88187  1  0  0  0  0
 88188  1  0  0  0  0
 89189  1  0  0  0  0
 89190  1  0  0  0  0
 89191  1  0  0  0  0
100192  1  0  0  0  0
100193  1  0  0  0  0
101194  1  0  0  0  0
101195  1  0  0  0  0
101196  1  0  0  0  0
108197  1  0  0  0  0
112198  1  0  0  0  0
118199  1  0  0  0  0
118200  1  0  0  0  0
119201  1  0  0  0  0
119202  1  0  0  0  0
119203  1  0  0  0  0
130204  1  0  0  0  0
130205  1  0  0  0  0
131206  1  0  0  0  0
131207  1  0  0  0  0
131208  1  0  0  0  0
138209  1  0  0  0  0
139210  1  0  0  0  0
M  END
