224

C          7.54750       -2.56710        8.93170
C          6.63650       -1.57870        9.03520
C          5.46990       -1.81600        8.25100
C          4.36540       -0.96870        8.06140
C          4.34360        0.37990        8.59980
S          2.97360        0.98700        9.48160
C          3.72450        2.52390        9.74370
C          3.01340        3.61560       10.46350
C          2.05840        4.35550        9.52400
C          4.95480        2.55670        9.15870
Cl         5.99820        3.91750        9.19990
C          5.30920        1.34520        8.50630
Cl         6.76540        1.17750        7.61360
C          3.32160       -1.46480        7.29090
C          3.36860       -2.73020        6.65940
C          4.49780       -3.55630        6.79710
C          4.59920       -4.81180        6.07380
S          4.27440       -4.87390        4.36240
C          4.69230       -6.54870        4.25590
C          4.65540       -7.26840        2.95340
C          5.42080       -6.51170        1.87020
C          5.03460       -7.02490        5.48600
C          4.98050       -6.04830        6.51750
Cl         5.27010       -6.44740        8.15790
Cl         5.49380       -8.64990        5.79300
C          5.52490       -3.07470        7.60250
S          7.04890       -3.86160        7.90090
C          2.21150       -2.97420        5.88500
C          1.32570       -1.93660        5.87850
S          1.85480       -0.61490        6.89720
C          0.19930       -1.81380        5.01090
C         -0.07530       -2.64600        3.96340
C         -1.04440       -2.13460        3.07230
C         -1.44270       -2.66250        1.83150
C         -0.92170       -3.92830        1.33910
S         -2.01930       -5.17970        0.83210
C         -0.73140       -6.27190        0.46350
C         -1.00040       -7.65980       -0.00280
C         -1.22970       -8.60000        1.18300
C          0.47110       -5.68730        0.72610
Cl         1.97150       -6.47840        0.49600
C          0.37210       -4.35660        1.21480
Cl         1.76230       -3.38810        1.52640
C         -2.36160       -1.92040        1.10250
C         -2.88370       -0.68390        1.55460
C         -2.47580       -0.15490        2.78960
C         -2.93660        1.15710        3.22560
S         -3.90350        1.37860        4.64860
C         -3.99110        3.09080        4.40990
C         -4.72420        3.96760        5.36540
C         -3.80570        4.46820        6.48240
C         -3.28660        3.45210        3.30030
C         -2.69220        2.35620        2.61820
Cl        -1.70770        2.52540        1.21630
Cl        -3.11300        5.07190        2.77280
C         -1.56780       -0.89710        3.52390
S         -0.85160       -0.41650        5.03490
C         -3.77670       -0.11190        0.61840
C         -3.91580       -0.84990       -0.51940
S         -2.95920       -2.31650       -0.48400
C         -4.63670       -0.48220       -1.69150
C         -4.61280       -1.07780       -2.91720
C         -5.25530       -0.31600       -3.92590
C         -5.25960       -0.53110       -5.31490
C         -4.48200       -1.59270       -5.93130
S         -5.14740       -2.59520       -7.18450
C         -3.64040       -3.40350       -7.45070
C         -3.49720       -4.43000       -8.51860
C         -3.37080       -3.76930       -9.89350
C         -2.68540       -2.90890       -6.61400
Cl        -1.05210       -3.43320       -6.60080
C         -3.15880       -1.89080       -5.74380
Cl        -2.11570       -1.08830       -4.63880
C         -5.91240        0.41560       -6.09760
C         -6.49270        1.58940       -5.56370
C         -6.44250        1.82980       -4.18340
C         -6.85560        3.10500       -3.61460
S         -8.03160        3.21480       -2.34260
C         -7.85540        4.93420       -2.22670
C         -8.67440        5.72960       -1.27180
C        -10.05560        6.03640       -1.85490
C         -6.94320        5.38230       -3.13530
C         -6.37020        4.34550       -3.91950
Cl        -5.14230        4.63380       -5.08210
Cl        -6.50060        7.03130       -3.32000
C         -5.84710        0.85680       -3.39540
S         -5.57090        0.99700       -1.68660
C         -6.88780        2.49490       -6.58470
C         -6.58810        2.07320       -7.83880
S         -5.92240        0.45380       -7.83720
C         -6.32800        2.98740       -8.97560
O         -7.08660        3.12530      -10.18590
C         -5.87130        3.36880      -10.91220
C         -5.08530        2.62720       -9.81980
C         -3.81450        2.90710       -9.11620
C         -3.03140        1.88040       -8.77090
C         -2.06550        1.82990       -7.70430
C         -2.16340        2.38010       -6.46240
C         -1.18480        1.90540       -5.54920
C         -1.09220        2.15390       -4.16670
C         -1.88260        3.19450       -3.53350
S         -2.75200        2.94500       -2.04950
C         -3.24360        4.60240       -1.96200
C         -4.03270        5.15100       -0.82320
C         -4.89760        4.10630       -0.13370
C         -2.75180        5.29430       -3.02960
Cl        -3.00460        6.97300       -3.27410
C         -1.98840        4.50200       -3.92500
Cl        -1.21350        5.16380       -5.30560
C         -0.17190        1.39330       -3.45270
C          0.73490        0.50070       -4.07540
C          0.70710        0.32080       -5.47030
C          1.66200       -0.52650       -6.16020
S          2.03560       -2.14090       -5.62860
C          3.14620       -2.40420       -6.92610
C          3.93260       -3.66330       -7.04410
C          5.36220       -3.45750       -6.53660
C          3.22050       -1.29450       -7.71430
C          2.38420       -0.23090       -7.28620
Cl         2.39390        1.29740       -8.06200
Cl         4.22300       -1.17770       -9.10170
C         -0.29850        0.98630       -6.16290
S         -0.72300        0.71580       -7.82530
C          1.61880       -0.09060       -3.14270
C          1.40400        0.29950       -1.85300
S          0.08370        1.44300       -1.72790
C          2.17040       -0.11480       -0.71890
C          3.11090       -1.10360       -0.70520
C          3.77770       -1.23970        0.53680
C          4.81740       -2.12960        0.86200
C          5.23020       -3.16730       -0.06680
S          4.03390       -4.22230       -0.76220
C          5.22220       -5.18230       -1.56670
C          4.82060       -6.34220       -2.40950
C          4.29340       -5.88160       -3.76970
C          6.46870       -4.68830       -1.32330
Cl         7.90900       -5.36910       -1.96150
C          6.47930       -3.55190       -0.46910
Cl         7.92370       -2.71950       -0.07300
C          5.35720       -2.02560        2.13950
C          4.88930       -1.09390        3.09760
C          3.87340       -0.18380        2.75870
C          3.43590        0.83850        3.68910
S          1.74640        1.13690        3.94840
C          2.05850        2.36560        5.12300
C          0.94900        3.04150        5.84820
C         -0.20630        3.39380        4.91830
C          3.40140        2.55030        5.26320
C          4.18830        1.69160        4.45100
Cl         5.89800        1.82110        4.37270
Cl         4.10230        3.71470        6.30720
C          3.31950       -0.29820        1.48800
S          2.04230        0.69020        0.83080
C          5.53710       -1.26910        4.35590
C          6.46660       -2.24530        4.33580
S          6.61430       -3.02810        2.80410
H          8.50400       -2.63520        9.41180
H          6.76700       -0.71320        9.65730
H          2.44880        3.19380       11.29700
H          3.75380        4.31340       10.85860
H          1.55510        5.15690       10.05810
H          1.31110        3.66980        9.13180
H          2.61030        4.78330        8.69120
H          3.61610       -7.38920        2.63470
H          5.08380       -8.26160        3.09740
H          5.38450       -7.05930        0.93210
H          6.46070       -6.37720        2.15640
H          4.97840       -5.53040        1.71730
H          2.04920       -3.88450        5.34100
H          0.43610       -3.57530        3.80750
H         -1.88370       -7.66090       -0.64330
H         -0.14420       -8.00740       -0.58400
H         -0.35160       -8.62010        1.82350
H         -2.08150       -8.26510        1.76990
H         -1.42470       -9.60800        0.82770
H         -5.12870        4.82210        4.81920
H         -5.55210        3.40710        5.80190
H         -3.36500        3.62830        7.01420
H         -3.00880        5.08080        6.06840
H         -4.37210        5.06990        7.18790
H         -4.28770        0.82110        0.77330
H         -4.12760       -2.02050       -3.09230
H         -2.60770       -5.02690       -8.31270
H         -4.36960       -5.08570       -8.51200
H         -4.25470       -3.17230      -10.10620
H         -2.49790       -3.12180       -9.92120
H         -3.26680       -4.52810      -10.66420
H         -8.78890        5.17040       -0.34170
H         -8.15150        6.66340       -1.05820
H        -10.58600        5.11260       -2.07330
H         -9.95840        6.60770       -2.77450
H        -10.64010        6.61560       -1.14540
H         -7.32340        3.45610       -6.38220
H         -6.22390        3.99740       -8.54390
H         -5.88280        2.92780      -11.90750
H         -5.66070        4.44220      -10.96640
H         -5.13600        1.56260      -10.06370
H         -3.67180        3.89290       -8.69730
H         -3.17260        0.92990       -9.27370
H         -2.96250        3.04200       -6.18240
H         -4.65080        5.97070       -1.19690
H         -3.33560        5.57550       -0.09300
H         -4.27630        3.29820        0.24240
H         -5.42950        4.55410        0.70140
H         -5.62240        3.68800       -0.82570
H          3.44420       -4.45040       -6.46810
H          3.96420       -3.96410       -8.09360
H          5.92770       -4.38120       -6.62700
H          5.35460       -3.14840       -5.49390
H          5.86090       -2.68830       -7.12010
H          2.39970       -0.77100       -3.42350
H          3.33110       -1.71380       -1.56070
H          5.68840       -6.98870       -2.55010
H          4.04170       -6.90750       -1.89320
H          3.43900       -5.22070       -3.63930
H          5.07100       -5.34790       -4.30870
H          3.98500       -6.73990       -4.36060
H          1.34480        3.94030        6.32490
H          0.58500        2.37100        6.63410
H         -0.60900        2.49040        4.46630
H         -0.99790        3.88660        5.47490
H          0.12870        4.05720        4.12440
H          5.29900       -0.69910        5.23450
H          7.09910       -2.57100        5.13840
