55

C          7.05120        7.48490        2.31580
C          7.22560        6.60650        1.24540
C          6.27460        5.62260        1.08310
C          5.21970        5.60100        2.00740
N          5.13250        6.48170        2.99860
N          6.03100        7.40160        3.14860
C          4.15240        4.60020        1.91850
C          3.11950        4.55110        2.86650
C          2.14810        3.59490        2.68450
C          2.28230        2.73910        1.57950
N          3.30660        2.84080        0.73840
N          4.20580        3.74790        0.89940
C          1.28760        1.69390        1.30940
C          0.77280        0.89560        2.34290
C         -0.17540       -0.04180        2.00520
C         -0.53860       -0.12360        0.65340
N          0.00250        0.67050       -0.26590
N          0.88320        1.55340        0.05050
C         -1.54070       -1.08310        0.18910
C         -1.72490       -1.33330       -1.17980
C         -2.67680       -2.26170       -1.52540
C         -3.37020       -2.88810       -0.47880
N         -3.15580       -2.57450        0.79420
N         -2.26860       -1.69210        1.11800
C         -4.37690       -3.91560       -0.73010
C         -5.61960       -3.99480       -0.15420
O         -6.31610       -5.01920       -0.63650
C         -5.52770       -5.63790       -1.54000
N         -6.02830       -6.77980       -2.19900
O         -7.15560       -7.13800       -1.93490
O         -5.28110       -7.32270       -2.99410
C         -4.29500       -5.01180       -1.64390
C         -3.18680       -5.39750       -2.49350
C         -1.90130       -5.37380       -2.12810
C         -1.42120       -5.06280       -0.78300
C         -2.00260       -5.63200        0.36060
C         -1.50080       -5.24830        1.58400
C         -0.43690       -4.34650        1.57490
N          0.08560       -3.87900        0.45900
N         -0.39350       -4.22270       -0.69280
H          7.74900        8.28460        2.51850
H          8.07040        6.69920        0.57980
H          6.30750        4.88860        0.29410
H          3.11210        5.25420        3.68390
H          1.30120        3.51130        3.34980
H          1.12700        1.00670        3.35730
H         -0.63460       -0.70170        2.72350
H         -1.12520       -0.80430       -1.90160
H         -2.88930       -2.51110       -2.55330
H         -6.08400       -3.36810        0.58140
H         -3.45970       -5.73700       -3.48310
H         -1.13230       -5.59590       -2.85310
H         -2.80120       -6.35240        0.26720
H         -1.90230       -5.62940        2.50960
H          0.01980       -3.99060        2.48640
