287

C          2.74580        0.21370        7.82140
C          2.22520       -1.01880        7.65920
C          2.95630       -2.02910        8.35490
C          2.68780       -3.40640        8.43710
C          1.69180       -4.02220        7.55580
C          1.64860       -3.66420        6.20940
C          0.72040       -4.20730        5.34470
C         -0.20220       -5.14750        5.79000
S         -1.42570       -5.94050        4.80320
C         -1.37760       -5.07140        3.19630
C         -2.02750       -3.70310        3.24770
C         -0.13300       -5.51630        7.13620
F         -1.00660       -6.43000        7.60490
C          0.78190       -4.97480        8.01070
C          3.45510       -4.12920        9.34350
C          4.53440       -3.56920       10.07250
C          4.87940       -2.22600        9.88540
C          6.09130       -1.61200       10.44050
C          6.98520       -1.01630        9.55500
C          8.12520       -0.38180       10.00060
C          8.40090       -0.30450       11.36110
S          9.79840        0.50720       12.06020
C         10.42660        1.54540       10.69510
C          9.48340        2.68190       10.34950
C          7.51080       -0.93030       12.23650
C          6.37580       -1.58070       11.80160
F          7.76000       -0.89140       13.56170
C          4.04910       -1.48200        9.05850
S          4.17020        0.23920        8.80730
C          5.21920       -4.54410       10.85490
C          4.71890       -5.79610       10.72490
S          3.30990       -5.83530        9.66770
C          5.22170       -7.05230       11.23460
C          5.54450       -8.14960       10.44960
C          5.90370       -9.25880       11.24560
C          5.86140       -8.98320       12.58660
S          5.35680       -7.38190       12.93850
C          6.13070      -10.20910       13.36880
C          6.94120      -11.01670       12.34600
C          6.31180      -10.69350       10.96770
C          7.31220      -10.81150        9.80760
C          8.47530       -9.82550        9.85570
C          5.02830      -11.49650       10.66860
C          5.24690      -12.92070       10.16750
C          7.11330      -12.37570       12.99880
C          7.67770      -12.04420       14.38820
S          7.15350      -10.33380       14.87180
C          5.50650       -8.01750        9.00280
C          6.02890       -6.91410        8.44260
C          5.71810       -6.35120        7.16700
C          4.92110       -6.79530        6.15520
C          4.62430       -5.79940        5.19020
C          3.75240       -5.90170        4.09410
C          3.19170       -7.19210        3.67940
C          4.02490       -8.29260        3.49420
C          3.52720       -9.49960        3.04290
C          2.17590       -9.64970        2.75140
S          1.40770      -11.12430        2.17060
C          2.80070      -12.17980        1.64110
C          3.47070      -11.66230        0.38220
C          1.34880       -8.54410        2.95960
F          0.03250       -8.65290        2.69740
C          1.83290       -7.33910        3.41450
C          3.48220       -4.72610        3.41080
C          4.09430       -3.48450        3.71870
C          4.99620       -3.38830        4.79190
C          5.61280       -2.11970        5.19620
C          4.85900       -0.95770        5.33690
C          5.42790        0.22280        5.77510
C          6.77600        0.28450        6.10550
S          7.61720        1.68300        6.76230
C          6.36030        3.00340        6.79910
C          6.11710        3.61730        5.43270
C          7.52560       -0.88370        5.94430
C          6.97330       -2.06230        5.50010
F          8.84010       -0.85740        6.24760
C          5.22730       -4.55580        5.50490
S          6.18680       -4.67390        6.94970
C          3.67030       -2.45460        2.84230
C          2.73690       -2.85820        1.93480
S          2.37460       -4.56610        2.07180
C          2.04780       -2.03480        0.99250
C          2.42370       -0.80220        0.54770
C          1.49290       -0.20870       -0.34210
C          1.58790        1.03590       -0.99200
C          2.67510        1.96480       -0.66560
C          3.42160        2.60870       -1.65020
C          4.43680        3.47530       -1.30570
C          4.76000        3.73110        0.02660
S          6.12690        4.80900        0.33090
C          5.64340        5.75840        1.82070
C          4.34150        6.50780        1.62180
C          4.01590        3.06930        0.99810
F          4.28440        3.22710        2.31700
C          2.98180        2.21850        0.66890
C          0.58980        1.33580       -1.90820
C         -0.51960        0.48290       -2.13570
C         -0.64590       -0.73040       -1.44230
C         -1.82740       -1.58650       -1.60760
C         -2.25240       -2.02430       -2.86040
C         -3.37450       -2.81660       -2.98140
C         -4.12430       -3.19080       -1.86730
S         -5.57460       -4.16370       -2.14920
C         -5.60240       -5.34630       -0.75150
C         -4.32100       -6.14830       -0.65350
C         -3.69990       -2.72730       -0.62580
C         -2.56470       -1.95540       -0.48810
F         -4.39760       -3.00710        0.49640
C          0.37970       -1.05410       -0.57160
S          0.50500       -2.53820        0.33410
C         -1.43600        1.03780       -3.05710
C         -1.05440        2.25160       -3.55140
S          0.46320        2.79130       -2.86610
C         -1.78290        3.00600       -4.52090
C         -2.89850        2.56400       -5.17120
C         -3.45820        3.51000       -6.06000
C         -4.58970        3.33660       -6.87770
C         -5.36200        2.09140       -6.80630
C         -5.74670        1.56720       -5.57380
C         -6.37780        0.34280       -5.47800
C         -6.65380       -0.40570       -6.61710
S         -7.37400       -2.01110       -6.63480
C         -7.30450       -2.55810       -4.89230
C         -8.52170       -2.14070       -4.08950
C         -6.31990        0.16090       -7.84990
F         -6.59910       -0.52170       -8.97820
C         -5.68590        1.37800       -7.95860
C         -4.89530        4.38340       -7.73170
C         -4.13480        5.57910       -7.77860
C         -2.99990        5.75020       -6.96360
C         -2.19390        6.97150       -7.06240
C         -1.82090        7.47190       -8.30870
C         -1.12260        8.65670       -8.42960
C         -0.76110        9.38730       -7.30280
S          0.08320       10.93020       -7.31760
C         -0.04760       11.49630       -9.05110
C          1.08560       11.00080       -9.92960
C         -1.09520        8.84800       -6.05800
C         -1.79780        7.67170       -5.92440
F         -0.73960        9.51400       -4.94120
C         -2.69870        4.70580       -6.10250
S         -1.34280        4.62980       -5.00300
C         -4.68830        6.51260       -8.68700
C         -5.79540        6.05730       -9.34130
S         -6.24630        4.44460       -8.83510
C         -6.50280        6.76940      -10.35880
C         -6.02940        7.86010      -11.02670
C         -6.93610        8.38430      -11.97970
C         -6.73650        9.47160      -12.84580
C         -5.49360       10.25000      -12.77840
C         -4.72200       10.48520      -13.91400
C         -3.52060       11.15830      -13.82070
C         -3.04510       11.61580      -12.59620
S         -1.45140       12.39520      -12.53100
C         -1.82570       13.95660      -11.64940
C         -2.82200       14.80480      -12.41360
C         -3.82740       11.37980      -11.47130
F         -3.40380       11.77370      -10.24850
C         -5.03820       10.72500      -11.55080
C         -7.75580        9.74190      -13.74610
C         -8.95510        8.99000      -13.80270
C         -9.15180        7.90310      -12.93820
C        -10.36100        7.07260      -12.99640
C        -10.79130        6.51560      -14.19960
C        -11.89610        5.69240      -14.23510
C        -12.62520        5.40590      -13.08230
S        -14.04070        4.36040      -13.25380
C        -13.98610        3.29660      -11.76400
C        -12.67850        2.53900      -11.65310
C        -12.20630        6.00090      -11.89600
C        -11.08480        6.80300      -11.84010
F        -12.89370        5.81640      -10.74840
C         -8.13330        7.63090      -12.03580
S         -8.10630        6.31400      -10.88920
C         -9.85940        9.52020      -14.77160
C         -9.36850       10.59780      -15.41510
S         -7.78000       11.05250      -14.89760
H          2.37660        1.14000        7.42540
H          1.32700       -1.21640        7.10230
H          2.37260       -2.96210        5.82590
H          0.72200       -3.89020        4.31460
H         -1.93170       -5.74050        2.53800
H         -0.34950       -5.01910        2.84050
H         -1.98010       -3.24650        2.26160
H         -1.51950       -3.05360        3.95770
H         -3.07030       -3.78760        3.54290
H          0.75970       -5.28140        9.04420
H          6.79020       -1.07100        8.49520
H          8.79400        0.04730        9.27310
H         11.37000        1.92860       11.08430
H         10.63790        0.90800        9.83780
H          8.52520        2.30210       10.00170
H          9.31150        3.30710       11.22270
H          9.91920        3.29230        9.56090
H          5.71040       -2.02570       12.52500
H          6.08670       -4.31720       11.44850
H          5.18030      -10.69330       13.62760
H          7.93390      -10.55230       12.32840
H          7.71130      -11.82700        9.79210
H          6.76520      -10.64940        8.87630
H          9.06840       -9.92040        8.94880
H          8.11660       -8.80180        9.92110
H          9.13140      -10.01590       10.70130
H          4.41970      -11.52440       11.57480
H          4.45490      -10.94900        9.91660
H          4.28910      -13.43310       10.10800
H          5.68980      -12.92360        9.17530
H          5.89300      -13.48310       10.83450
H          7.80720      -13.01970       12.45880
H          6.15420      -12.88640       13.09550
H          7.32870      -12.73030       15.15740
H          8.76670      -12.03710       14.38730
H          4.95690       -8.74970        8.42980
H          6.63270       -6.26820        9.06830
H          4.50930       -7.78710        6.11870
H          5.08350       -8.19600        3.68410
H          4.20770      -10.32620        2.91750
H          3.49660      -12.28510        2.47230
H          2.33070      -13.14650        1.45980
H          4.27090      -12.33720        0.08450
H          3.89150      -10.67160        0.54080
H          2.74800      -11.60080       -0.42790
H          1.14380       -6.53040        3.58330
H          3.79820       -0.97650        5.13770
H          4.80070        1.09270        5.87340
H          5.45630        2.59750        7.25150
H          6.78580        3.74090        7.48020
H          5.38830        4.42170        5.51600
H          7.04390        4.02700        5.03700
H          5.74000        2.88230        4.72550
H          7.60960       -2.92520        5.38460
H          4.03780       -1.44660        2.89250
H          3.36240       -0.35120        0.81130
H          3.21330        2.41930       -2.69150
H          5.01050        3.97260       -2.07190
H          5.60280        5.08510        2.67400
H          6.47700        6.44820        1.95280
H          4.39850        7.14700        0.74340
H          3.51010        5.81750        1.49230
H          4.13990        7.12810        2.49290
H          2.41430        1.76220        1.46540
H         -1.68150       -1.76530       -3.73910
H         -3.69170       -3.16720       -3.95160
H         -5.81600       -4.80240        0.16620
H         -6.45110       -5.98760       -0.98980
H         -4.41610       -6.88970        0.13710
H         -3.47350       -5.50620       -0.41970
H         -4.11700       -6.66170       -1.59090
H         -2.28650       -1.61040        0.49580
H         -2.35510        0.55230       -3.32570
H         -3.29800        1.57570       -5.04560
H         -5.56160        2.13480       -4.67400
H         -6.64680       -0.02780       -4.50250
H         -7.24910       -3.64430       -4.95840
H         -6.37530       -2.19400       -4.45710
H         -8.42260       -2.50660       -3.06950
H         -8.63180       -1.05890       -4.06470
H         -9.42310       -2.56340       -4.52640
H         -5.41850        1.74340       -8.93740
H         -2.06240        6.91220       -9.20000
H         -0.86340        9.00830       -9.41470
H         -1.02590       11.20120       -9.42360
H         -0.01860       12.58310       -8.97180
H          1.13200        9.91440       -9.94470
H          0.93750       11.35630      -10.94790
H          2.03810       11.37500       -9.56200
H         -2.05770        7.32770       -4.93590
H         -4.29630        7.50300       -8.82210
H         -5.04300        8.25570      -10.87280
H         -5.05750       10.12120      -14.87260
H         -2.92070       11.33010      -14.70060
H         -0.85700       14.45070      -11.57900
H         -2.17720       13.71880      -10.64760
H         -3.78080       14.29520      -12.49700
H         -2.97650       15.74780      -11.89320
H         -2.45480       15.01510      -13.41590
H         -5.61810       10.58780      -10.65110
H        -10.23170        6.70130      -15.10380
H        -12.21530        5.24590      -15.16390
H        -14.82370        2.61580      -11.91650
H        -14.18090        3.90690      -10.88500
H        -12.49210        1.96290      -12.55700
H        -11.84390        3.22070      -11.49930
H        -12.72250        1.85680      -10.80660
H        -10.80560        7.23660      -10.89250
H        -10.83680        9.11120      -14.95170
H         -9.84090       11.18030      -16.18180
