
  xtb     03052207213D
 energy: -485.565603074990 gnorm: 0.000379376544 xtb: 6.4.1 (unknown)
287314  0     0  0            999 V2000
    2.7458    0.2137    7.8214 C   0  0  0  0  0  0  0  0  0  0  0  0
    2.2252   -1.0188    7.6592 C   0  0  0  0  0  0  0  0  0  0  0  0
    2.9563   -2.0291    8.3549 C   0  0  0  0  0  0  0  0  0  0  0  0
    2.6878   -3.4064    8.4371 C   0  0  0  0  0  0  0  0  0  0  0  0
    1.6918   -4.0222    7.5558 C   0  0  0  0  0  0  0  0  0  0  0  0
    1.6486   -3.6642    6.2094 C   0  0  0  0  0  0  0  0  0  0  0  0
    0.7204   -4.2073    5.3447 C   0  0  0  0  0  0  0  0  0  0  0  0
   -0.2022   -5.1475    5.7900 C   0  0  0  0  0  0  0  0  0  0  0  0
   -1.4257   -5.9405    4.8032 S   0  0  0  0  0  0  0  0  0  0  0  0
   -1.3776   -5.0714    3.1963 C   0  0  0  0  0  0  0  0  0  0  0  0
   -2.0275   -3.7031    3.2477 C   0  0  0  0  0  0  0  0  0  0  0  0
   -0.1330   -5.5163    7.1362 C   0  0  0  0  0  0  0  0  0  0  0  0
   -1.0066   -6.4300    7.6049 F   0  0  0  0  0  0  0  0  0  0  0  0
    0.7819   -4.9748    8.0107 C   0  0  0  0  0  0  0  0  0  0  0  0
    3.4551   -4.1292    9.3435 C   0  0  0  0  0  0  0  0  0  0  0  0
    4.5344   -3.5692   10.0725 C   0  0  0  0  0  0  0  0  0  0  0  0
    4.8794   -2.2260    9.8854 C   0  0  0  0  0  0  0  0  0  0  0  0
    6.0913   -1.6120   10.4405 C   0  0  0  0  0  0  0  0  0  0  0  0
    6.9852   -1.0163    9.5550 C   0  0  0  0  0  0  0  0  0  0  0  0
    8.1252   -0.3818   10.0006 C   0  0  0  0  0  0  0  0  0  0  0  0
    8.4009   -0.3045   11.3611 C   0  0  0  0  0  0  0  0  0  0  0  0
    9.7984    0.5072   12.0602 S   0  0  0  0  0  0  0  0  0  0  0  0
   10.4266    1.5454   10.6951 C   0  0  0  0  0  0  0  0  0  0  0  0
    9.4834    2.6819   10.3495 C   0  0  0  0  0  0  0  0  0  0  0  0
    7.5108   -0.9303   12.2365 C   0  0  0  0  0  0  0  0  0  0  0  0
    6.3758   -1.5807   11.8016 C   0  0  0  0  0  0  0  0  0  0  0  0
    7.7600   -0.8914   13.5617 F   0  0  0  0  0  0  0  0  0  0  0  0
    4.0491   -1.4820    9.0585 C   0  0  0  0  0  0  0  0  0  0  0  0
    4.1702    0.2392    8.8073 S   0  0  0  0  0  0  0  0  0  0  0  0
    5.2192   -4.5441   10.8549 C   0  0  0  0  0  0  0  0  0  0  0  0
    4.7189   -5.7961   10.7249 C   0  0  0  0  0  0  0  0  0  0  0  0
    3.3099   -5.8353    9.6677 S   0  0  0  0  0  0  0  0  0  0  0  0
    5.2217   -7.0523   11.2346 C   0  0  0  0  0  0  0  0  0  0  0  0
    5.5445   -8.1496   10.4496 C   0  0  0  0  0  0  0  0  0  0  0  0
    5.9037   -9.2588   11.2456 C   0  0  0  0  0  0  0  0  0  0  0  0
    5.8614   -8.9832   12.5866 C   0  0  0  0  0  0  0  0  0  0  0  0
    5.3568   -7.3819   12.9385 S   0  0  0  0  0  0  0  0  0  0  0  0
    6.1307  -10.2091   13.3688 C   0  0  0  0  0  0  0  0  0  0  0  0
    6.9412  -11.0167   12.3460 C   0  0  0  0  0  0  0  0  0  0  0  0
    6.3118  -10.6935   10.9677 C   0  0  0  0  0  0  0  0  0  0  0  0
    7.3122  -10.8115    9.8076 C   0  0  0  0  0  0  0  0  0  0  0  0
    8.4753   -9.8255    9.8557 C   0  0  0  0  0  0  0  0  0  0  0  0
    5.0283  -11.4965   10.6686 C   0  0  0  0  0  0  0  0  0  0  0  0
    5.2469  -12.9207   10.1675 C   0  0  0  0  0  0  0  0  0  0  0  0
    7.1133  -12.3757   12.9988 C   0  0  0  0  0  0  0  0  0  0  0  0
    7.6777  -12.0442   14.3882 C   0  0  0  0  0  0  0  0  0  0  0  0
    7.1535  -10.3338   14.8718 S   0  0  0  0  0  0  0  0  0  0  0  0
    5.5065   -8.0175    9.0028 C   0  0  0  0  0  0  0  0  0  0  0  0
    6.0289   -6.9141    8.4426 C   0  0  0  0  0  0  0  0  0  0  0  0
    5.7181   -6.3512    7.1670 C   0  0  0  0  0  0  0  0  0  0  0  0
    4.9211   -6.7953    6.1552 C   0  0  0  0  0  0  0  0  0  0  0  0
    4.6243   -5.7994    5.1902 C   0  0  0  0  0  0  0  0  0  0  0  0
    3.7524   -5.9017    4.0941 C   0  0  0  0  0  0  0  0  0  0  0  0
    3.1917   -7.1921    3.6794 C   0  0  0  0  0  0  0  0  0  0  0  0
    4.0249   -8.2926    3.4942 C   0  0  0  0  0  0  0  0  0  0  0  0
    3.5272   -9.4996    3.0429 C   0  0  0  0  0  0  0  0  0  0  0  0
    2.1759   -9.6497    2.7514 C   0  0  0  0  0  0  0  0  0  0  0  0
    1.4077  -11.1243    2.1706 S   0  0  0  0  0  0  0  0  0  0  0  0
    2.8007  -12.1798    1.6411 C   0  0  0  0  0  0  0  0  0  0  0  0
    3.4707  -11.6623    0.3822 C   0  0  0  0  0  0  0  0  0  0  0  0
    1.3488   -8.5441    2.9596 C   0  0  0  0  0  0  0  0  0  0  0  0
    0.0325   -8.6529    2.6974 F   0  0  0  0  0  0  0  0  0  0  0  0
    1.8329   -7.3391    3.4145 C   0  0  0  0  0  0  0  0  0  0  0  0
    3.4822   -4.7261    3.4108 C   0  0  0  0  0  0  0  0  0  0  0  0
    4.0943   -3.4845    3.7187 C   0  0  0  0  0  0  0  0  0  0  0  0
    4.9962   -3.3883    4.7919 C   0  0  0  0  0  0  0  0  0  0  0  0
    5.6128   -2.1197    5.1962 C   0  0  0  0  0  0  0  0  0  0  0  0
    4.8590   -0.9577    5.3369 C   0  0  0  0  0  0  0  0  0  0  0  0
    5.4279    0.2228    5.7751 C   0  0  0  0  0  0  0  0  0  0  0  0
    6.7760    0.2845    6.1055 C   0  0  0  0  0  0  0  0  0  0  0  0
    7.6172    1.6830    6.7623 S   0  0  0  0  0  0  0  0  0  0  0  0
    6.3603    3.0034    6.7991 C   0  0  0  0  0  0  0  0  0  0  0  0
    6.1171    3.6173    5.4327 C   0  0  0  0  0  0  0  0  0  0  0  0
    7.5256   -0.8837    5.9443 C   0  0  0  0  0  0  0  0  0  0  0  0
    6.9733   -2.0623    5.5001 C   0  0  0  0  0  0  0  0  0  0  0  0
    8.8401   -0.8574    6.2476 F   0  0  0  0  0  0  0  0  0  0  0  0
    5.2273   -4.5558    5.5049 C   0  0  0  0  0  0  0  0  0  0  0  0
    6.1868   -4.6739    6.9497 S   0  0  0  0  0  0  0  0  0  0  0  0
    3.6703   -2.4546    2.8423 C   0  0  0  0  0  0  0  0  0  0  0  0
    2.7369   -2.8582    1.9348 C   0  0  0  0  0  0  0  0  0  0  0  0
    2.3746   -4.5661    2.0718 S   0  0  0  0  0  0  0  0  0  0  0  0
    2.0478   -2.0348    0.9925 C   0  0  0  0  0  0  0  0  0  0  0  0
    2.4237   -0.8022    0.5477 C   0  0  0  0  0  0  0  0  0  0  0  0
    1.4929   -0.2087   -0.3421 C   0  0  0  0  0  0  0  0  0  0  0  0
    1.5879    1.0359   -0.9920 C   0  0  0  0  0  0  0  0  0  0  0  0
    2.6751    1.9648   -0.6656 C   0  0  0  0  0  0  0  0  0  0  0  0
    3.4216    2.6087   -1.6502 C   0  0  0  0  0  0  0  0  0  0  0  0
    4.4368    3.4753   -1.3057 C   0  0  0  0  0  0  0  0  0  0  0  0
    4.7600    3.7311    0.0266 C   0  0  0  0  0  0  0  0  0  0  0  0
    6.1269    4.8090    0.3309 S   0  0  0  0  0  0  0  0  0  0  0  0
    5.6434    5.7584    1.8207 C   0  0  0  0  0  0  0  0  0  0  0  0
    4.3415    6.5078    1.6218 C   0  0  0  0  0  0  0  0  0  0  0  0
    4.0159    3.0693    0.9981 C   0  0  0  0  0  0  0  0  0  0  0  0
    4.2844    3.2271    2.3170 F   0  0  0  0  0  0  0  0  0  0  0  0
    2.9818    2.2185    0.6689 C   0  0  0  0  0  0  0  0  0  0  0  0
    0.5898    1.3358   -1.9082 C   0  0  0  0  0  0  0  0  0  0  0  0
   -0.5196    0.4829   -2.1357 C   0  0  0  0  0  0  0  0  0  0  0  0
   -0.6459   -0.7304   -1.4423 C   0  0  0  0  0  0  0  0  0  0  0  0
   -1.8274   -1.5865   -1.6076 C   0  0  0  0  0  0  0  0  0  0  0  0
   -2.2524   -2.0243   -2.8604 C   0  0  0  0  0  0  0  0  0  0  0  0
   -3.3745   -2.8166   -2.9814 C   0  0  0  0  0  0  0  0  0  0  0  0
   -4.1243   -3.1908   -1.8673 C   0  0  0  0  0  0  0  0  0  0  0  0
   -5.5746   -4.1637   -2.1492 S   0  0  0  0  0  0  0  0  0  0  0  0
   -5.6024   -5.3463   -0.7515 C   0  0  0  0  0  0  0  0  0  0  0  0
   -4.3210   -6.1483   -0.6535 C   0  0  0  0  0  0  0  0  0  0  0  0
   -3.6999   -2.7273   -0.6258 C   0  0  0  0  0  0  0  0  0  0  0  0
   -2.5647   -1.9554   -0.4881 C   0  0  0  0  0  0  0  0  0  0  0  0
   -4.3976   -3.0071    0.4964 F   0  0  0  0  0  0  0  0  0  0  0  0
    0.3797   -1.0541   -0.5716 C   0  0  0  0  0  0  0  0  0  0  0  0
    0.5050   -2.5382    0.3341 S   0  0  0  0  0  0  0  0  0  0  0  0
   -1.4360    1.0378   -3.0571 C   0  0  0  0  0  0  0  0  0  0  0  0
   -1.0544    2.2516   -3.5514 C   0  0  0  0  0  0  0  0  0  0  0  0
    0.4632    2.7913   -2.8661 S   0  0  0  0  0  0  0  0  0  0  0  0
   -1.7829    3.0060   -4.5209 C   0  0  0  0  0  0  0  0  0  0  0  0
   -2.8985    2.5640   -5.1712 C   0  0  0  0  0  0  0  0  0  0  0  0
   -3.4582    3.5100   -6.0600 C   0  0  0  0  0  0  0  0  0  0  0  0
   -4.5897    3.3366   -6.8777 C   0  0  0  0  0  0  0  0  0  0  0  0
   -5.3620    2.0914   -6.8063 C   0  0  0  0  0  0  0  0  0  0  0  0
   -5.7467    1.5672   -5.5738 C   0  0  0  0  0  0  0  0  0  0  0  0
   -6.3778    0.3428   -5.4780 C   0  0  0  0  0  0  0  0  0  0  0  0
   -6.6538   -0.4057   -6.6171 C   0  0  0  0  0  0  0  0  0  0  0  0
   -7.3740   -2.0111   -6.6348 S   0  0  0  0  0  0  0  0  0  0  0  0
   -7.3045   -2.5581   -4.8923 C   0  0  0  0  0  0  0  0  0  0  0  0
   -8.5217   -2.1407   -4.0895 C   0  0  0  0  0  0  0  0  0  0  0  0
   -6.3199    0.1609   -7.8499 C   0  0  0  0  0  0  0  0  0  0  0  0
   -6.5991   -0.5217   -8.9782 F   0  0  0  0  0  0  0  0  0  0  0  0
   -5.6859    1.3780   -7.9586 C   0  0  0  0  0  0  0  0  0  0  0  0
   -4.8953    4.3834   -7.7317 C   0  0  0  0  0  0  0  0  0  0  0  0
   -4.1348    5.5791   -7.7786 C   0  0  0  0  0  0  0  0  0  0  0  0
   -2.9999    5.7502   -6.9636 C   0  0  0  0  0  0  0  0  0  0  0  0
   -2.1939    6.9715   -7.0624 C   0  0  0  0  0  0  0  0  0  0  0  0
   -1.8209    7.4719   -8.3087 C   0  0  0  0  0  0  0  0  0  0  0  0
   -1.1226    8.6567   -8.4296 C   0  0  0  0  0  0  0  0  0  0  0  0
   -0.7611    9.3873   -7.3028 C   0  0  0  0  0  0  0  0  0  0  0  0
    0.0832   10.9302   -7.3176 S   0  0  0  0  0  0  0  0  0  0  0  0
   -0.0476   11.4963   -9.0511 C   0  0  0  0  0  0  0  0  0  0  0  0
    1.0856   11.0008   -9.9296 C   0  0  0  0  0  0  0  0  0  0  0  0
   -1.0952    8.8480   -6.0580 C   0  0  0  0  0  0  0  0  0  0  0  0
   -1.7978    7.6717   -5.9244 C   0  0  0  0  0  0  0  0  0  0  0  0
   -0.7396    9.5140   -4.9412 F   0  0  0  0  0  0  0  0  0  0  0  0
   -2.6987    4.7058   -6.1025 C   0  0  0  0  0  0  0  0  0  0  0  0
   -1.3428    4.6298   -5.0030 S   0  0  0  0  0  0  0  0  0  0  0  0
   -4.6883    6.5126   -8.6870 C   0  0  0  0  0  0  0  0  0  0  0  0
   -5.7954    6.0573   -9.3413 C   0  0  0  0  0  0  0  0  0  0  0  0
   -6.2463    4.4446   -8.8351 S   0  0  0  0  0  0  0  0  0  0  0  0
   -6.5028    6.7694  -10.3588 C   0  0  0  0  0  0  0  0  0  0  0  0
   -6.0294    7.8601  -11.0267 C   0  0  0  0  0  0  0  0  0  0  0  0
   -6.9361    8.3843  -11.9797 C   0  0  0  0  0  0  0  0  0  0  0  0
   -6.7365    9.4716  -12.8458 C   0  0  0  0  0  0  0  0  0  0  0  0
   -5.4936   10.2500  -12.7784 C   0  0  0  0  0  0  0  0  0  0  0  0
   -4.7220   10.4852  -13.9140 C   0  0  0  0  0  0  0  0  0  0  0  0
   -3.5206   11.1583  -13.8207 C   0  0  0  0  0  0  0  0  0  0  0  0
   -3.0451   11.6158  -12.5962 C   0  0  0  0  0  0  0  0  0  0  0  0
   -1.4514   12.3952  -12.5310 S   0  0  0  0  0  0  0  0  0  0  0  0
   -1.8257   13.9566  -11.6494 C   0  0  0  0  0  0  0  0  0  0  0  0
   -2.8220   14.8048  -12.4136 C   0  0  0  0  0  0  0  0  0  0  0  0
   -3.8274   11.3798  -11.4713 C   0  0  0  0  0  0  0  0  0  0  0  0
   -3.4038   11.7737  -10.2485 F   0  0  0  0  0  0  0  0  0  0  0  0
   -5.0382   10.7250  -11.5508 C   0  0  0  0  0  0  0  0  0  0  0  0
   -7.7558    9.7419  -13.7461 C   0  0  0  0  0  0  0  0  0  0  0  0
   -8.9551    8.9900  -13.8027 C   0  0  0  0  0  0  0  0  0  0  0  0
   -9.1518    7.9031  -12.9382 C   0  0  0  0  0  0  0  0  0  0  0  0
  -10.3610    7.0726  -12.9964 C   0  0  0  0  0  0  0  0  0  0  0  0
  -10.7913    6.5156  -14.1996 C   0  0  0  0  0  0  0  0  0  0  0  0
  -11.8961    5.6924  -14.2351 C   0  0  0  0  0  0  0  0  0  0  0  0
  -12.6252    5.4059  -13.0823 C   0  0  0  0  0  0  0  0  0  0  0  0
  -14.0407    4.3604  -13.2538 S   0  0  0  0  0  0  0  0  0  0  0  0
  -13.9861    3.2966  -11.7640 C   0  0  0  0  0  0  0  0  0  0  0  0
  -12.6785    2.5390  -11.6531 C   0  0  0  0  0  0  0  0  0  0  0  0
  -12.2063    6.0009  -11.8960 C   0  0  0  0  0  0  0  0  0  0  0  0
  -11.0848    6.8030  -11.8401 C   0  0  0  0  0  0  0  0  0  0  0  0
  -12.8937    5.8164  -10.7484 F   0  0  0  0  0  0  0  0  0  0  0  0
   -8.1333    7.6309  -12.0358 C   0  0  0  0  0  0  0  0  0  0  0  0
   -8.1063    6.3140  -10.8892 S   0  0  0  0  0  0  0  0  0  0  0  0
   -9.8594    9.5202  -14.7716 C   0  0  0  0  0  0  0  0  0  0  0  0
   -9.3685   10.5978  -15.4151 C   0  0  0  0  0  0  0  0  0  0  0  0
   -7.7800   11.0525  -14.8976 S   0  0  0  0  0  0  0  0  0  0  0  0
    2.3766    1.1400    7.4254 H   0  0  0  0  0  0  0  0  0  0  0  0
    1.3270   -1.2164    7.1023 H   0  0  0  0  0  0  0  0  0  0  0  0
    2.3726   -2.9621    5.8259 H   0  0  0  0  0  0  0  0  0  0  0  0
    0.7220   -3.8902    4.3146 H   0  0  0  0  0  0  0  0  0  0  0  0
   -1.9317   -5.7405    2.5380 H   0  0  0  0  0  0  0  0  0  0  0  0
   -0.3495   -5.0191    2.8405 H   0  0  0  0  0  0  0  0  0  0  0  0
   -1.9801   -3.2465    2.2616 H   0  0  0  0  0  0  0  0  0  0  0  0
   -1.5195   -3.0536    3.9577 H   0  0  0  0  0  0  0  0  0  0  0  0
   -3.0703   -3.7876    3.5429 H   0  0  0  0  0  0  0  0  0  0  0  0
    0.7597   -5.2814    9.0442 H   0  0  0  0  0  0  0  0  0  0  0  0
    6.7902   -1.0710    8.4952 H   0  0  0  0  0  0  0  0  0  0  0  0
    8.7940    0.0473    9.2731 H   0  0  0  0  0  0  0  0  0  0  0  0
   11.3700    1.9286   11.0843 H   0  0  0  0  0  0  0  0  0  0  0  0
   10.6379    0.9080    9.8378 H   0  0  0  0  0  0  0  0  0  0  0  0
    8.5252    2.3021   10.0017 H   0  0  0  0  0  0  0  0  0  0  0  0
    9.3115    3.3071   11.2227 H   0  0  0  0  0  0  0  0  0  0  0  0
    9.9192    3.2923    9.5609 H   0  0  0  0  0  0  0  0  0  0  0  0
    5.7104   -2.0257   12.5250 H   0  0  0  0  0  0  0  0  0  0  0  0
    6.0867   -4.3172   11.4485 H   0  0  0  0  0  0  0  0  0  0  0  0
    5.1803  -10.6933   13.6276 H   0  0  0  0  0  0  0  0  0  0  0  0
    7.9339  -10.5523   12.3284 H   0  0  0  0  0  0  0  0  0  0  0  0
    7.7113  -11.8270    9.7921 H   0  0  0  0  0  0  0  0  0  0  0  0
    6.7652  -10.6494    8.8763 H   0  0  0  0  0  0  0  0  0  0  0  0
    9.0684   -9.9204    8.9488 H   0  0  0  0  0  0  0  0  0  0  0  0
    8.1166   -8.8018    9.9211 H   0  0  0  0  0  0  0  0  0  0  0  0
    9.1314  -10.0159   10.7013 H   0  0  0  0  0  0  0  0  0  0  0  0
    4.4197  -11.5244   11.5748 H   0  0  0  0  0  0  0  0  0  0  0  0
    4.4549  -10.9490    9.9166 H   0  0  0  0  0  0  0  0  0  0  0  0
    4.2891  -13.4331   10.1080 H   0  0  0  0  0  0  0  0  0  0  0  0
    5.6898  -12.9236    9.1753 H   0  0  0  0  0  0  0  0  0  0  0  0
    5.8930  -13.4831   10.8345 H   0  0  0  0  0  0  0  0  0  0  0  0
    7.8072  -13.0197   12.4588 H   0  0  0  0  0  0  0  0  0  0  0  0
    6.1542  -12.8864   13.0955 H   0  0  0  0  0  0  0  0  0  0  0  0
    7.3287  -12.7303   15.1574 H   0  0  0  0  0  0  0  0  0  0  0  0
    8.7667  -12.0371   14.3873 H   0  0  0  0  0  0  0  0  0  0  0  0
    4.9569   -8.7497    8.4298 H   0  0  0  0  0  0  0  0  0  0  0  0
    6.6327   -6.2682    9.0683 H   0  0  0  0  0  0  0  0  0  0  0  0
    4.5093   -7.7871    6.1187 H   0  0  0  0  0  0  0  0  0  0  0  0
    5.0835   -8.1960    3.6841 H   0  0  0  0  0  0  0  0  0  0  0  0
    4.2077  -10.3262    2.9175 H   0  0  0  0  0  0  0  0  0  0  0  0
    3.4966  -12.2851    2.4723 H   0  0  0  0  0  0  0  0  0  0  0  0
    2.3307  -13.1465    1.4598 H   0  0  0  0  0  0  0  0  0  0  0  0
    4.2709  -12.3372    0.0845 H   0  0  0  0  0  0  0  0  0  0  0  0
    3.8915  -10.6716    0.5408 H   0  0  0  0  0  0  0  0  0  0  0  0
    2.7480  -11.6008   -0.4279 H   0  0  0  0  0  0  0  0  0  0  0  0
    1.1438   -6.5304    3.5833 H   0  0  0  0  0  0  0  0  0  0  0  0
    3.7982   -0.9765    5.1377 H   0  0  0  0  0  0  0  0  0  0  0  0
    4.8007    1.0927    5.8734 H   0  0  0  0  0  0  0  0  0  0  0  0
    5.4563    2.5975    7.2515 H   0  0  0  0  0  0  0  0  0  0  0  0
    6.7858    3.7409    7.4802 H   0  0  0  0  0  0  0  0  0  0  0  0
    5.3883    4.4217    5.5160 H   0  0  0  0  0  0  0  0  0  0  0  0
    7.0439    4.0270    5.0370 H   0  0  0  0  0  0  0  0  0  0  0  0
    5.7400    2.8823    4.7255 H   0  0  0  0  0  0  0  0  0  0  0  0
    7.6096   -2.9252    5.3846 H   0  0  0  0  0  0  0  0  0  0  0  0
    4.0378   -1.4466    2.8925 H   0  0  0  0  0  0  0  0  0  0  0  0
    3.3624   -0.3512    0.8113 H   0  0  0  0  0  0  0  0  0  0  0  0
    3.2133    2.4193   -2.6915 H   0  0  0  0  0  0  0  0  0  0  0  0
    5.0105    3.9726   -2.0719 H   0  0  0  0  0  0  0  0  0  0  0  0
    5.6028    5.0851    2.6740 H   0  0  0  0  0  0  0  0  0  0  0  0
    6.4770    6.4482    1.9528 H   0  0  0  0  0  0  0  0  0  0  0  0
    4.3985    7.1470    0.7434 H   0  0  0  0  0  0  0  0  0  0  0  0
    3.5101    5.8175    1.4923 H   0  0  0  0  0  0  0  0  0  0  0  0
    4.1399    7.1281    2.4929 H   0  0  0  0  0  0  0  0  0  0  0  0
    2.4143    1.7622    1.4654 H   0  0  0  0  0  0  0  0  0  0  0  0
   -1.6815   -1.7653   -3.7391 H   0  0  0  0  0  0  0  0  0  0  0  0
   -3.6917   -3.1672   -3.9516 H   0  0  0  0  0  0  0  0  0  0  0  0
   -5.8160   -4.8024    0.1662 H   0  0  0  0  0  0  0  0  0  0  0  0
   -6.4511   -5.9876   -0.9898 H   0  0  0  0  0  0  0  0  0  0  0  0
   -4.4161   -6.8897    0.1371 H   0  0  0  0  0  0  0  0  0  0  0  0
   -3.4735   -5.5062   -0.4197 H   0  0  0  0  0  0  0  0  0  0  0  0
   -4.1170   -6.6617   -1.5909 H   0  0  0  0  0  0  0  0  0  0  0  0
   -2.2865   -1.6104    0.4958 H   0  0  0  0  0  0  0  0  0  0  0  0
   -2.3551    0.5523   -3.3257 H   0  0  0  0  0  0  0  0  0  0  0  0
   -3.2980    1.5757   -5.0456 H   0  0  0  0  0  0  0  0  0  0  0  0
   -5.5616    2.1348   -4.6740 H   0  0  0  0  0  0  0  0  0  0  0  0
   -6.6468   -0.0278   -4.5025 H   0  0  0  0  0  0  0  0  0  0  0  0
   -7.2491   -3.6443   -4.9584 H   0  0  0  0  0  0  0  0  0  0  0  0
   -6.3753   -2.1940   -4.4571 H   0  0  0  0  0  0  0  0  0  0  0  0
   -8.4226   -2.5066   -3.0695 H   0  0  0  0  0  0  0  0  0  0  0  0
   -8.6318   -1.0589   -4.0647 H   0  0  0  0  0  0  0  0  0  0  0  0
   -9.4231   -2.5634   -4.5264 H   0  0  0  0  0  0  0  0  0  0  0  0
   -5.4185    1.7434   -8.9374 H   0  0  0  0  0  0  0  0  0  0  0  0
   -2.0624    6.9122   -9.2000 H   0  0  0  0  0  0  0  0  0  0  0  0
   -0.8634    9.0083   -9.4147 H   0  0  0  0  0  0  0  0  0  0  0  0
   -1.0259   11.2012   -9.4236 H   0  0  0  0  0  0  0  0  0  0  0  0
   -0.0186   12.5831   -8.9718 H   0  0  0  0  0  0  0  0  0  0  0  0
    1.1320    9.9144   -9.9447 H   0  0  0  0  0  0  0  0  0  0  0  0
    0.9375   11.3563  -10.9479 H   0  0  0  0  0  0  0  0  0  0  0  0
    2.0381   11.3750   -9.5620 H   0  0  0  0  0  0  0  0  0  0  0  0
   -2.0577    7.3277   -4.9359 H   0  0  0  0  0  0  0  0  0  0  0  0
   -4.2963    7.5030   -8.8221 H   0  0  0  0  0  0  0  0  0  0  0  0
   -5.0430    8.2557  -10.8728 H   0  0  0  0  0  0  0  0  0  0  0  0
   -5.0575   10.1212  -14.8726 H   0  0  0  0  0  0  0  0  0  0  0  0
   -2.9207   11.3301  -14.7006 H   0  0  0  0  0  0  0  0  0  0  0  0
   -0.8570   14.4507  -11.5790 H   0  0  0  0  0  0  0  0  0  0  0  0
   -2.1772   13.7188  -10.6476 H   0  0  0  0  0  0  0  0  0  0  0  0
   -3.7808   14.2952  -12.4970 H   0  0  0  0  0  0  0  0  0  0  0  0
   -2.9765   15.7478  -11.8932 H   0  0  0  0  0  0  0  0  0  0  0  0
   -2.4548   15.0151  -13.4159 H   0  0  0  0  0  0  0  0  0  0  0  0
   -5.6181   10.5878  -10.6511 H   0  0  0  0  0  0  0  0  0  0  0  0
  -10.2317    6.7013  -15.1038 H   0  0  0  0  0  0  0  0  0  0  0  0
  -12.2153    5.2459  -15.1639 H   0  0  0  0  0  0  0  0  0  0  0  0
  -14.8237    2.6158  -11.9165 H   0  0  0  0  0  0  0  0  0  0  0  0
  -14.1809    3.9069  -10.8850 H   0  0  0  0  0  0  0  0  0  0  0  0
  -12.4921    1.9629  -12.5570 H   0  0  0  0  0  0  0  0  0  0  0  0
  -11.8439    3.2207  -11.4993 H   0  0  0  0  0  0  0  0  0  0  0  0
  -12.7225    1.8568  -10.8066 H   0  0  0  0  0  0  0  0  0  0  0  0
  -10.8056    7.2366  -10.8925 H   0  0  0  0  0  0  0  0  0  0  0  0
  -10.8368    9.1112  -14.9517 H   0  0  0  0  0  0  0  0  0  0  0  0
   -9.8409   11.1803  -16.1818 H   0  0  0  0  0  0  0  0  0  0  0  0
  1  2  2  0  0  0  0
  2  3  1  0  0  0  0
  3  4  2  0  0  0  0
  4  5  1  0  0  0  0
  5  6  2  0  0  0  0
  6  7  1  0  0  0  0
  7  8  2  0  0  0  0
  8  9  1  0  0  0  0
  9 10  1  0  0  0  0
 10 11  1  0  0  0  0
  8 12  1  0  0  0  0
 12 13  1  0  0  0  0
 12 14  2  0  0  0  0
  4 15  1  0  0  0  0
 15 16  2  0  0  0  0
 16 17  1  0  0  0  0
 17 18  1  0  0  0  0
 18 19  2  0  0  0  0
 19 20  1  0  0  0  0
 20 21  2  0  0  0  0
 21 22  1  0  0  0  0
 22 23  1  0  0  0  0
 23 24  1  0  0  0  0
 21 25  1  0  0  0  0
 25 26  2  0  0  0  0
 25 27  1  0  0  0  0
 17 28  2  0  0  0  0
 28 29  1  0  0  0  0
 16 30  1  0  0  0  0
 30 31  2  0  0  0  0
 31 32  1  0  0  0  0
 31 33  1  0  0  0  0
 33 34  2  0  0  0  0
 34 35  1  0  0  0  0
 35 36  2  0  0  0  0
 36 37  1  0  0  0  0
 36 38  1  0  0  0  0
 38 39  1  0  0  0  0
 39 40  1  0  0  0  0
 40 41  1  0  0  0  0
 41 42  1  0  0  0  0
 40 43  1  0  0  0  0
 43 44  1  0  0  0  0
 39 45  1  0  0  0  0
 45 46  1  0  0  0  0
 46 47  1  0  0  0  0
 34 48  1  0  0  0  0
 48 49  2  0  0  0  0
 49 50  1  0  0  0  0
 50 51  2  0  0  0  0
 51 52  1  0  0  0  0
 52 53  2  0  0  0  0
 53 54  1  0  0  0  0
 54 55  2  0  0  0  0
 55 56  1  0  0  0  0
 56 57  2  0  0  0  0
 57 58  1  0  0  0  0
 58 59  1  0  0  0  0
 59 60  1  0  0  0  0
 57 61  1  0  0  0  0
 61 62  1  0  0  0  0
 61 63  2  0  0  0  0
 53 64  1  0  0  0  0
 64 65  2  0  0  0  0
 65 66  1  0  0  0  0
 66 67  1  0  0  0  0
 67 68  2  0  0  0  0
 68 69  1  0  0  0  0
 69 70  2  0  0  0  0
 70 71  1  0  0  0  0
 71 72  1  0  0  0  0
 72 73  1  0  0  0  0
 70 74  1  0  0  0  0
 74 75  2  0  0  0  0
 74 76  1  0  0  0  0
 66 77  2  0  0  0  0
 77 78  1  0  0  0  0
 65 79  1  0  0  0  0
 79 80  2  0  0  0  0
 80 81  1  0  0  0  0
 80 82  1  0  0  0  0
 82 83  2  0  0  0  0
 83 84  1  0  0  0  0
 84 85  2  0  0  0  0
 85 86  1  0  0  0  0
 86 87  2  0  0  0  0
 87 88  1  0  0  0  0
 88 89  2  0  0  0  0
 89 90  1  0  0  0  0
 90 91  1  0  0  0  0
 91 92  1  0  0  0  0
 89 93  1  0  0  0  0
 93 94  1  0  0  0  0
 93 95  2  0  0  0  0
 85 96  1  0  0  0  0
 96 97  2  0  0  0  0
 97 98  1  0  0  0  0
 98 99  1  0  0  0  0
 99100  2  0  0  0  0
100101  1  0  0  0  0
101102  2  0  0  0  0
102103  1  0  0  0  0
103104  1  0  0  0  0
104105  1  0  0  0  0
102106  1  0  0  0  0
106107  2  0  0  0  0
106108  1  0  0  0  0
 98109  2  0  0  0  0
109110  1  0  0  0  0
 97111  1  0  0  0  0
111112  2  0  0  0  0
112113  1  0  0  0  0
112114  1  0  0  0  0
114115  2  0  0  0  0
115116  1  0  0  0  0
116117  2  0  0  0  0
117118  1  0  0  0  0
118119  2  0  0  0  0
119120  1  0  0  0  0
120121  2  0  0  0  0
121122  1  0  0  0  0
122123  1  0  0  0  0
123124  1  0  0  0  0
121125  1  0  0  0  0
125126  1  0  0  0  0
125127  2  0  0  0  0
117128  1  0  0  0  0
128129  2  0  0  0  0
129130  1  0  0  0  0
130131  1  0  0  0  0
131132  2  0  0  0  0
132133  1  0  0  0  0
133134  2  0  0  0  0
134135  1  0  0  0  0
135136  1  0  0  0  0
136137  1  0  0  0  0
134138  1  0  0  0  0
138139  2  0  0  0  0
138140  1  0  0  0  0
130141  2  0  0  0  0
141142  1  0  0  0  0
129143  1  0  0  0  0
143144  2  0  0  0  0
144145  1  0  0  0  0
144146  1  0  0  0  0
146147  2  0  0  0  0
147148  1  0  0  0  0
148149  2  0  0  0  0
149150  1  0  0  0  0
150151  2  0  0  0  0
151152  1  0  0  0  0
152153  2  0  0  0  0
153154  1  0  0  0  0
154155  1  0  0  0  0
155156  1  0  0  0  0
153157  1  0  0  0  0
157158  1  0  0  0  0
157159  2  0  0  0  0
149160  1  0  0  0  0
160161  2  0  0  0  0
161162  1  0  0  0  0
162163  1  0  0  0  0
163164  2  0  0  0  0
164165  1  0  0  0  0
165166  2  0  0  0  0
166167  1  0  0  0  0
167168  1  0  0  0  0
168169  1  0  0  0  0
166170  1  0  0  0  0
170171  2  0  0  0  0
170172  1  0  0  0  0
162173  2  0  0  0  0
173174  1  0  0  0  0
161175  1  0  0  0  0
175176  2  0  0  0  0
176177  1  0  0  0  0
 29  1  1  0  0  0  0
 37 33  1  0  0  0  0
 47 38  1  0  0  0  0
 78 50  1  0  0  0  0
110 82  1  0  0  0  0
142114  1  0  0  0  0
174146  1  0  0  0  0
 28  3  1  0  0  0  0
 40 35  1  0  0  0  0
 77 52  1  0  0  0  0
109 84  1  0  0  0  0
141116  1  0  0  0  0
173148  1  0  0  0  0
 14  5  1  0  0  0  0
 32 15  1  0  0  0  0
 63 54  1  0  0  0  0
 81 64  1  0  0  0  0
 95 86  1  0  0  0  0
113 96  1  0  0  0  0
127118  1  0  0  0  0
145128  1  0  0  0  0
159150  1  0  0  0  0
177160  1  0  0  0  0
 26 18  1  0  0  0  0
 75 67  1  0  0  0  0
107 99  1  0  0  0  0
139131  1  0  0  0  0
171163  1  0  0  0  0
  1178  1  0  0  0  0
  2179  1  0  0  0  0
  6180  1  0  0  0  0
  7181  1  0  0  0  0
 10182  1  0  0  0  0
 10183  1  0  0  0  0
 11184  1  0  0  0  0
 11185  1  0  0  0  0
 11186  1  0  0  0  0
 14187  1  0  0  0  0
 19188  1  0  0  0  0
 20189  1  0  0  0  0
 23190  1  0  0  0  0
 23191  1  0  0  0  0
 24192  1  0  0  0  0
 24193  1  0  0  0  0
 24194  1  0  0  0  0
 26195  1  0  0  0  0
 30196  1  0  0  0  0
 38197  1  0  0  0  0
 39198  1  0  0  0  0
 41199  1  0  0  0  0
 41200  1  0  0  0  0
 42201  1  0  0  0  0
 42202  1  0  0  0  0
 42203  1  0  0  0  0
 43204  1  0  0  0  0
 43205  1  0  0  0  0
 44206  1  0  0  0  0
 44207  1  0  0  0  0
 44208  1  0  0  0  0
 45209  1  0  0  0  0
 45210  1  0  0  0  0
 46211  1  0  0  0  0
 46212  1  0  0  0  0
 48213  1  0  0  0  0
 49214  1  0  0  0  0
 51215  1  0  0  0  0
 55216  1  0  0  0  0
 56217  1  0  0  0  0
 59218  1  0  0  0  0
 59219  1  0  0  0  0
 60220  1  0  0  0  0
 60221  1  0  0  0  0
 60222  1  0  0  0  0
 63223  1  0  0  0  0
 68224  1  0  0  0  0
 69225  1  0  0  0  0
 72226  1  0  0  0  0
 72227  1  0  0  0  0
 73228  1  0  0  0  0
 73229  1  0  0  0  0
 73230  1  0  0  0  0
 75231  1  0  0  0  0
 79232  1  0  0  0  0
 83233  1  0  0  0  0
 87234  1  0  0  0  0
 88235  1  0  0  0  0
 91236  1  0  0  0  0
 91237  1  0  0  0  0
 92238  1  0  0  0  0
 92239  1  0  0  0  0
 92240  1  0  0  0  0
 95241  1  0  0  0  0
100242  1  0  0  0  0
101243  1  0  0  0  0
104244  1  0  0  0  0
104245  1  0  0  0  0
105246  1  0  0  0  0
105247  1  0  0  0  0
105248  1  0  0  0  0
107249  1  0  0  0  0
111250  1  0  0  0  0
115251  1  0  0  0  0
119252  1  0  0  0  0
120253  1  0  0  0  0
123254  1  0  0  0  0
123255  1  0  0  0  0
124256  1  0  0  0  0
124257  1  0  0  0  0
124258  1  0  0  0  0
127259  1  0  0  0  0
132260  1  0  0  0  0
133261  1  0  0  0  0
136262  1  0  0  0  0
136263  1  0  0  0  0
137264  1  0  0  0  0
137265  1  0  0  0  0
137266  1  0  0  0  0
139267  1  0  0  0  0
143268  1  0  0  0  0
147269  1  0  0  0  0
151270  1  0  0  0  0
152271  1  0  0  0  0
155272  1  0  0  0  0
155273  1  0  0  0  0
156274  1  0  0  0  0
156275  1  0  0  0  0
156276  1  0  0  0  0
159277  1  0  0  0  0
164278  1  0  0  0  0
165279  1  0  0  0  0
168280  1  0  0  0  0
168281  1  0  0  0  0
169282  1  0  0  0  0
169283  1  0  0  0  0
169284  1  0  0  0  0
171285  1  0  0  0  0
175286  1  0  0  0  0
176287  1  0  0  0  0
M  END
