
  xtb     03022207063D
 energy: -457.260382409930 gnorm: 0.000246653442 xtb: 6.4.1 (unknown)
227253  0     0  0            999 V2000
    2.0211  -12.0800   10.1112 C   0  0  0  0  0  0  0  0  0  0  0  0
    2.5387  -10.9463    9.5955 C   0  0  0  0  0  0  0  0  0  0  0  0
    1.7176  -10.3768    8.5794 C   0  0  0  0  0  0  0  0  0  0  0  0
    1.9701   -9.2418    7.7937 C   0  0  0  0  0  0  0  0  0  0  0  0
    3.1498   -8.4157    7.9987 C   0  0  0  0  0  0  0  0  0  0  0  0
    3.4990   -7.7188    9.5534 S   0  0  0  0  0  0  0  0  0  0  0  0
    4.9020   -6.8976    8.9593 C   0  0  0  0  0  0  0  0  0  0  0  0
    5.7631   -6.0865    9.8633 C   0  0  0  0  0  0  0  0  0  0  0  0
    6.7624   -6.9741   10.6090 C   0  0  0  0  0  0  0  0  0  0  0  0
    5.0835   -7.1699    7.6366 C   0  0  0  0  0  0  0  0  0  0  0  0
    6.3775   -6.5439    6.6996 Cl  0  0  0  0  0  0  0  0  0  0  0  0
    4.0895   -8.0239    7.0867 C   0  0  0  0  0  0  0  0  0  0  0  0
    4.1385   -8.5612    5.4600 Cl  0  0  0  0  0  0  0  0  0  0  0  0
    1.0313   -8.9278    6.8188 C   0  0  0  0  0  0  0  0  0  0  0  0
   -0.1427   -9.6917    6.6061 C   0  0  0  0  0  0  0  0  0  0  0  0
   -0.4007  -10.8217    7.3997 C   0  0  0  0  0  0  0  0  0  0  0  0
   -1.6075  -11.6093    7.2111 C   0  0  0  0  0  0  0  0  0  0  0  0
   -2.0368  -12.2384    5.6471 S   0  0  0  0  0  0  0  0  0  0  0  0
   -3.4809  -12.9761    6.2505 C   0  0  0  0  0  0  0  0  0  0  0  0
   -4.4241  -13.6765    5.3366 C   0  0  0  0  0  0  0  0  0  0  0  0
   -5.3199  -12.6709    4.6084 C   0  0  0  0  0  0  0  0  0  0  0  0
   -3.6110  -12.7364    7.5856 C   0  0  0  0  0  0  0  0  0  0  0  0
   -2.5491  -11.9681    8.1354 C   0  0  0  0  0  0  0  0  0  0  0  0
   -2.5301  -11.4747    9.7760 Cl  0  0  0  0  0  0  0  0  0  0  0  0
   -4.9241  -13.2990    8.5361 Cl  0  0  0  0  0  0  0  0  0  0  0  0
    0.5466  -11.1430    8.3652 C   0  0  0  0  0  0  0  0  0  0  0  0
    0.5069  -12.5324    9.4121 S   0  0  0  0  0  0  0  0  0  0  0  0
   -0.9577   -9.1328    5.5908 C   0  0  0  0  0  0  0  0  0  0  0  0
   -0.4411   -7.9977    5.0422 C   0  0  0  0  0  0  0  0  0  0  0  0
    1.0899   -7.5469    5.7623 S   0  0  0  0  0  0  0  0  0  0  0  0
   -1.0092   -7.1935    4.0117 C   0  0  0  0  0  0  0  0  0  0  0  0
   -0.4932   -6.0558    3.4673 C   0  0  0  0  0  0  0  0  0  0  0  0
   -1.3266   -5.4729    2.4831 C   0  0  0  0  0  0  0  0  0  0  0  0
   -1.0846   -4.3189    1.7212 C   0  0  0  0  0  0  0  0  0  0  0  0
    0.0432   -3.4417    1.9813 C   0  0  0  0  0  0  0  0  0  0  0  0
    1.0550   -2.8440    0.6999 S   0  0  0  0  0  0  0  0  0  0  0  0
    1.9651   -1.8419    1.7769 C   0  0  0  0  0  0  0  0  0  0  0  0
    3.0275   -0.9302    1.2712 C   0  0  0  0  0  0  0  0  0  0  0  0
    2.4260    0.4049    0.8238 C   0  0  0  0  0  0  0  0  0  0  0  0
    1.4993   -1.9743    3.0511 C   0  0  0  0  0  0  0  0  0  0  0  0
    2.1338   -1.1209    4.3948 Cl  0  0  0  0  0  0  0  0  0  0  0  0
    0.4149   -2.8826    3.1744 C   0  0  0  0  0  0  0  0  0  0  0  0
   -0.3929   -3.1508    4.6658 Cl  0  0  0  0  0  0  0  0  0  0  0  0
   -2.0200   -4.0076    0.7427 C   0  0  0  0  0  0  0  0  0  0  0  0
   -3.2151   -4.7409    0.5472 C   0  0  0  0  0  0  0  0  0  0  0  0
   -3.4739   -5.8785    1.3349 C   0  0  0  0  0  0  0  0  0  0  0  0
   -4.6876   -6.6555    1.1484 C   0  0  0  0  0  0  0  0  0  0  0  0
   -5.1450   -7.2207   -0.4332 S   0  0  0  0  0  0  0  0  0  0  0  0
   -6.5710   -7.9963    0.1657 C   0  0  0  0  0  0  0  0  0  0  0  0
   -7.5251   -8.6673   -0.7590 C   0  0  0  0  0  0  0  0  0  0  0  0
   -8.4206   -7.6404   -1.4571 C   0  0  0  0  0  0  0  0  0  0  0  0
   -6.6742   -7.8167    1.5126 C   0  0  0  0  0  0  0  0  0  0  0  0
   -5.6080   -7.0627    2.0744 C   0  0  0  0  0  0  0  0  0  0  0  0
   -5.5658   -6.6401    3.7345 Cl  0  0  0  0  0  0  0  0  0  0  0  0
   -7.9600   -8.4358    2.4658 Cl  0  0  0  0  0  0  0  0  0  0  0  0
   -2.5117   -6.2246    2.2761 C   0  0  0  0  0  0  0  0  0  0  0  0
   -2.5576   -7.6206    3.3138 S   0  0  0  0  0  0  0  0  0  0  0  0
   -4.0525   -4.1340   -0.4250 C   0  0  0  0  0  0  0  0  0  0  0  0
   -3.5129   -3.0100   -0.9725 C   0  0  0  0  0  0  0  0  0  0  0  0
   -1.9332   -2.6360   -0.3172 S   0  0  0  0  0  0  0  0  0  0  0  0
   -4.0779   -2.0786   -1.8991 C   0  0  0  0  0  0  0  0  0  0  0  0
   -5.3887   -1.7670   -2.1064 C   0  0  0  0  0  0  0  0  0  0  0  0
   -5.5717   -0.6270   -2.9317 C   0  0  0  0  0  0  0  0  0  0  0  0
   -6.7788    0.0435   -3.2217 C   0  0  0  0  0  0  0  0  0  0  0  0
   -8.0547   -0.5611   -2.8954 C   0  0  0  0  0  0  0  0  0  0  0  0
   -9.3300    0.3292   -2.1175 S   0  0  0  0  0  0  0  0  0  0  0  0
  -10.3889   -1.0379   -2.1141 C   0  0  0  0  0  0  0  0  0  0  0  0
  -11.7406   -0.9630   -1.4952 C   0  0  0  0  0  0  0  0  0  0  0  0
  -11.6696   -1.2305    0.0103 C   0  0  0  0  0  0  0  0  0  0  0  0
   -9.7770   -2.1161   -2.6832 C   0  0  0  0  0  0  0  0  0  0  0  0
  -10.5150   -3.6559   -2.8583 Cl  0  0  0  0  0  0  0  0  0  0  0  0
   -8.4576   -1.8502   -3.1321 C   0  0  0  0  0  0  0  0  0  0  0  0
   -7.5258   -3.0227   -3.9710 Cl  0  0  0  0  0  0  0  0  0  0  0  0
   -6.6667    1.3164   -3.7759 C   0  0  0  0  0  0  0  0  0  0  0  0
   -5.4180    1.8453   -4.1851 C   0  0  0  0  0  0  0  0  0  0  0  0
   -4.2245    1.1130   -4.0396 C   0  0  0  0  0  0  0  0  0  0  0  0
   -2.9601    1.6638   -4.4883 C   0  0  0  0  0  0  0  0  0  0  0  0
   -1.5550    1.6814   -3.4606 S   0  0  0  0  0  0  0  0  0  0  0  0
   -0.6030    2.5100   -4.6399 C   0  0  0  0  0  0  0  0  0  0  0  0
    0.8265    2.8612   -4.4123 C   0  0  0  0  0  0  0  0  0  0  0  0
    1.2976    2.5599   -2.9980 C   0  0  0  0  0  0  0  0  0  0  0  0
   -1.3425    2.7516   -5.7616 C   0  0  0  0  0  0  0  0  0  0  0  0
   -2.6751    2.2736   -5.6829 C   0  0  0  0  0  0  0  0  0  0  0  0
   -3.7645    2.3794   -7.0052 Cl  0  0  0  0  0  0  0  0  0  0  0  0
   -0.7266    3.5677   -7.1402 Cl  0  0  0  0  0  0  0  0  0  0  0  0
   -4.3303   -0.0840   -3.3491 C   0  0  0  0  0  0  0  0  0  0  0  0
   -2.9914   -1.0346   -2.7867 S   0  0  0  0  0  0  0  0  0  0  0  0
   -5.5165    3.1993   -4.5522 C   0  0  0  0  0  0  0  0  0  0  0  0
   -6.7790    3.7119   -4.4216 C   0  0  0  0  0  0  0  0  0  0  0  0
   -7.9425    2.5060   -3.9391 S   0  0  0  0  0  0  0  0  0  0  0  0
   -6.9780    5.1270   -4.4173 C   0  0  0  0  0  0  0  0  0  0  0  0
   -5.8343    5.8197   -4.6507 O   0  0  0  0  0  0  0  0  0  0  0  0
   -7.9281    6.0208   -3.9792 C   0  0  0  0  0  0  0  0  0  0  0  0
   -9.3120    6.1579   -3.5196 C   0  0  0  0  0  0  0  0  0  0  0  0
  -10.2007    5.3537   -3.4207 O   0  0  0  0  0  0  0  0  0  0  0  0
   -9.4126    7.5091   -3.1880 N   0  0  0  0  0  0  0  0  0  0  0  0
   -8.2544    8.2640   -3.3658 C   0  0  0  0  0  0  0  0  0  0  0  0
   -8.1476    9.4355   -3.1136 O   0  0  0  0  0  0  0  0  0  0  0  0
   -7.2872    7.2955   -3.8893 C   0  0  0  0  0  0  0  0  0  0  0  0
   -5.9822    7.1244   -4.2931 C   0  0  0  0  0  0  0  0  0  0  0  0
   -4.7361    7.8307   -4.2200 C   0  0  0  0  0  0  0  0  0  0  0  0
   -3.6927    7.3450   -4.9287 C   0  0  0  0  0  0  0  0  0  0  0  0
   -2.2945    7.4516   -4.6596 C   0  0  0  0  0  0  0  0  0  0  0  0
   -1.6870    7.5202   -3.4361 C   0  0  0  0  0  0  0  0  0  0  0  0
   -0.3164    7.1644   -3.4661 C   0  0  0  0  0  0  0  0  0  0  0  0
    0.5281    6.9021   -2.3705 C   0  0  0  0  0  0  0  0  0  0  0  0
    0.0906    7.1636   -1.0088 C   0  0  0  0  0  0  0  0  0  0  0  0
   -0.4680    8.7479   -0.5536 S   0  0  0  0  0  0  0  0  0  0  0  0
   -0.7260    8.2732    1.0902 C   0  0  0  0  0  0  0  0  0  0  0  0
   -1.2908    9.2223    2.0881 C   0  0  0  0  0  0  0  0  0  0  0  0
   -2.8169    9.2800    1.9831 C   0  0  0  0  0  0  0  0  0  0  0  0
   -0.4075    6.9588    1.2573 C   0  0  0  0  0  0  0  0  0  0  0  0
   -0.5429    6.1214    2.7499 Cl  0  0  0  0  0  0  0  0  0  0  0  0
    0.0604    6.3279    0.0728 C   0  0  0  0  0  0  0  0  0  0  0  0
    0.4463    4.6600    0.0283 Cl  0  0  0  0  0  0  0  0  0  0  0  0
    1.7800    6.3714   -2.6526 C   0  0  0  0  0  0  0  0  0  0  0  0
    2.2495    6.1648   -3.9752 C   0  0  0  0  0  0  0  0  0  0  0  0
    1.4172    6.4489   -5.0730 C   0  0  0  0  0  0  0  0  0  0  0  0
    1.8445    6.2210   -6.4418 C   0  0  0  0  0  0  0  0  0  0  0  0
    2.5650    4.7163   -6.9379 S   0  0  0  0  0  0  0  0  0  0  0  0
    2.6836    5.2188   -8.5859 C   0  0  0  0  0  0  0  0  0  0  0  0
    3.1943    4.2974   -9.6370 C   0  0  0  0  0  0  0  0  0  0  0  0
    2.0672    3.4108  -10.1727 C   0  0  0  0  0  0  0  0  0  0  0  0
    2.1935    6.4825   -8.7309 C   0  0  0  0  0  0  0  0  0  0  0  0
    1.7209    7.0552   -7.5202 C   0  0  0  0  0  0  0  0  0  0  0  0
    1.1495    8.6682   -7.4367 Cl  0  0  0  0  0  0  0  0  0  0  0  0
    2.1502    7.3249  -10.2250 Cl  0  0  0  0  0  0  0  0  0  0  0  0
    0.1324    6.8972   -4.7844 C   0  0  0  0  0  0  0  0  0  0  0  0
   -1.1609    7.0474   -5.9319 S   0  0  0  0  0  0  0  0  0  0  0  0
    3.5667    5.6479   -3.9913 C   0  0  0  0  0  0  0  0  0  0  0  0
    4.0800    5.4252   -2.7481 C   0  0  0  0  0  0  0  0  0  0  0  0
    2.9728    5.8946   -1.4775 S   0  0  0  0  0  0  0  0  0  0  0  0
    5.3461    4.8474   -2.4351 C   0  0  0  0  0  0  0  0  0  0  0  0
    5.7848    4.3801   -1.2328 C   0  0  0  0  0  0  0  0  0  0  0  0
    7.0964    3.8429   -1.2824 C   0  0  0  0  0  0  0  0  0  0  0  0
    7.8384    3.2665   -0.2398 C   0  0  0  0  0  0  0  0  0  0  0  0
    7.2726    3.0802    1.0874 C   0  0  0  0  0  0  0  0  0  0  0  0
    5.8330    2.1329    1.3241 S   0  0  0  0  0  0  0  0  0  0  0  0
    5.8948    2.3224    3.0427 C   0  0  0  0  0  0  0  0  0  0  0  0
    4.9249    1.6357    3.9389 C   0  0  0  0  0  0  0  0  0  0  0  0
    5.5036    0.3082    4.4355 C   0  0  0  0  0  0  0  0  0  0  0  0
    6.9694    3.0831    3.3951 C   0  0  0  0  0  0  0  0  0  0  0  0
    7.3567    3.4943    5.0150 Cl  0  0  0  0  0  0  0  0  0  0  0  0
    7.7521    3.5149    2.2904 C   0  0  0  0  0  0  0  0  0  0  0  0
    9.1161    4.5364    2.4677 Cl  0  0  0  0  0  0  0  0  0  0  0  0
    9.1306    2.8512   -0.5380 C   0  0  0  0  0  0  0  0  0  0  0  0
    9.7009    2.9729   -1.8284 C   0  0  0  0  0  0  0  0  0  0  0  0
    8.9425    3.5064   -2.8813 C   0  0  0  0  0  0  0  0  0  0  0  0
    9.4627    3.5722   -4.2377 C   0  0  0  0  0  0  0  0  0  0  0  0
    9.4565    5.0565   -5.1417 S   0  0  0  0  0  0  0  0  0  0  0  0
   10.1587    4.3027   -6.5321 C   0  0  0  0  0  0  0  0  0  0  0  0
   10.3895    5.0705   -7.7864 C   0  0  0  0  0  0  0  0  0  0  0  0
    9.0937    5.1970   -8.5912 C   0  0  0  0  0  0  0  0  0  0  0  0
   10.3695    2.9767   -6.2975 C   0  0  0  0  0  0  0  0  0  0  0  0
    9.9816    2.5597   -4.9956 C   0  0  0  0  0  0  0  0  0  0  0  0
   10.0857    0.9260   -4.4790 Cl  0  0  0  0  0  0  0  0  0  0  0  0
   11.0408    1.8938   -7.4477 Cl  0  0  0  0  0  0  0  0  0  0  0  0
    7.6617    3.9471   -2.5760 C   0  0  0  0  0  0  0  0  0  0  0  0
    6.5386    4.6482   -3.7051 S   0  0  0  0  0  0  0  0  0  0  0  0
   11.0444    2.4984   -1.8545 C   0  0  0  0  0  0  0  0  0  0  0  0
   11.4478    2.0076   -0.6647 C   0  0  0  0  0  0  0  0  0  0  0  0
   10.2414    2.0983    0.5697 S   0  0  0  0  0  0  0  0  0  0  0  0
    2.4358  -12.7027   10.8797 H   0  0  0  0  0  0  0  0  0  0  0  0
    3.4745  -10.5212    9.9083 H   0  0  0  0  0  0  0  0  0  0  0  0
    5.1371   -5.5591   10.5851 H   0  0  0  0  0  0  0  0  0  0  0  0
    6.3028   -5.3512    9.2639 H   0  0  0  0  0  0  0  0  0  0  0  0
    7.3870   -6.3679   11.2595 H   0  0  0  0  0  0  0  0  0  0  0  0
    6.2361   -7.7079   11.2148 H   0  0  0  0  0  0  0  0  0  0  0  0
    7.4008   -7.4985    9.9024 H   0  0  0  0  0  0  0  0  0  0  0  0
   -3.8593  -14.2558    4.6038 H   0  0  0  0  0  0  0  0  0  0  0  0
   -5.0398  -14.3592    5.9246 H   0  0  0  0  0  0  0  0  0  0  0  0
   -4.7163  -11.9854    4.0179 H   0  0  0  0  0  0  0  0  0  0  0  0
   -6.0051  -13.1923    3.9456 H   0  0  0  0  0  0  0  0  0  0  0  0
   -5.8994  -12.0942    5.3249 H   0  0  0  0  0  0  0  0  0  0  0  0
   -1.8993   -9.5464    5.2785 H   0  0  0  0  0  0  0  0  0  0  0  0
    0.4638   -5.6592    3.7538 H   0  0  0  0  0  0  0  0  0  0  0  0
    3.5376   -1.3971    0.4277 H   0  0  0  0  0  0  0  0  0  0  0  0
    3.7529   -0.7573    2.0673 H   0  0  0  0  0  0  0  0  0  0  0  0
    1.7065    0.2461    0.0242 H   0  0  0  0  0  0  0  0  0  0  0  0
    3.2116    1.0649    0.4650 H   0  0  0  0  0  0  0  0  0  0  0  0
    1.9153    0.8867    1.6538 H   0  0  0  0  0  0  0  0  0  0  0  0
   -8.1402   -9.3611   -0.1837 H   0  0  0  0  0  0  0  0  0  0  0  0
   -6.9690   -9.2314   -1.5101 H   0  0  0  0  0  0  0  0  0  0  0  0
   -7.8188   -6.9494   -2.0429 H   0  0  0  0  0  0  0  0  0  0  0  0
   -8.9875   -7.0723   -0.7236 H   0  0  0  0  0  0  0  0  0  0  0  0
   -9.1179   -8.1437   -2.1212 H   0  0  0  0  0  0  0  0  0  0  0  0
   -5.0157   -4.5162   -0.7073 H   0  0  0  0  0  0  0  0  0  0  0  0
   -6.1935   -2.2794   -1.6132 H   0  0  0  0  0  0  0  0  0  0  0  0
  -12.3854   -1.7060   -1.9683 H   0  0  0  0  0  0  0  0  0  0  0  0
  -12.1613    0.0286   -1.6682 H   0  0  0  0  0  0  0  0  0  0  0  0
  -11.2664   -2.2222    0.1991 H   0  0  0  0  0  0  0  0  0  0  0  0
  -12.6628   -1.1693    0.4465 H   0  0  0  0  0  0  0  0  0  0  0  0
  -11.0297   -0.4961    0.4934 H   0  0  0  0  0  0  0  0  0  0  0  0
    0.9604    3.9238   -4.6312 H   0  0  0  0  0  0  0  0  0  0  0  0
    1.4405    2.3120   -5.1329 H   0  0  0  0  0  0  0  0  0  0  0  0
    1.1879    1.5009   -2.7763 H   0  0  0  0  0  0  0  0  0  0  0  0
    0.7147    3.1241   -2.2749 H   0  0  0  0  0  0  0  0  0  0  0  0
    2.3444    2.8309   -2.8879 H   0  0  0  0  0  0  0  0  0  0  0  0
   -4.6706    3.8079   -4.8084 H   0  0  0  0  0  0  0  0  0  0  0  0
  -10.2682    7.9129   -2.8339 H   0  0  0  0  0  0  0  0  0  0  0  0
   -4.6497    8.6327   -3.5047 H   0  0  0  0  0  0  0  0  0  0  0  0
   -3.9228    6.6638   -5.7403 H   0  0  0  0  0  0  0  0  0  0  0  0
   -2.2287    7.7213   -2.5301 H   0  0  0  0  0  0  0  0  0  0  0  0
   -1.0045    8.8898    3.0874 H   0  0  0  0  0  0  0  0  0  0  0  0
   -0.8778   10.2181    1.9184 H   0  0  0  0  0  0  0  0  0  0  0  0
   -3.2157    9.9671    2.7239 H   0  0  0  0  0  0  0  0  0  0  0  0
   -3.2444    8.2953    2.1553 H   0  0  0  0  0  0  0  0  0  0  0  0
   -3.1150    9.6215    0.9946 H   0  0  0  0  0  0  0  0  0  0  0  0
    3.6120    4.8911  -10.4522 H   0  0  0  0  0  0  0  0  0  0  0  0
    3.9835    3.6704   -9.2184 H   0  0  0  0  0  0  0  0  0  0  0  0
    1.2821    4.0227  -10.6094 H   0  0  0  0  0  0  0  0  0  0  0  0
    1.6374    2.8188   -9.3682 H   0  0  0  0  0  0  0  0  0  0  0  0
    2.4508    2.7388  -10.9356 H   0  0  0  0  0  0  0  0  0  0  0  0
    4.1163    5.4284   -4.8881 H   0  0  0  0  0  0  0  0  0  0  0  0
    5.1870    4.4176   -0.3398 H   0  0  0  0  0  0  0  0  0  0  0  0
    3.9940    1.4546    3.4007 H   0  0  0  0  0  0  0  0  0  0  0  0
    4.7150    2.2801    4.7949 H   0  0  0  0  0  0  0  0  0  0  0  0
    5.7472   -0.3388    3.5956 H   0  0  0  0  0  0  0  0  0  0  0  0
    4.7819   -0.1992    5.0690 H   0  0  0  0  0  0  0  0  0  0  0  0
    6.4096    0.4836    5.0094 H   0  0  0  0  0  0  0  0  0  0  0  0
   11.1433    4.5523   -8.3815 H   0  0  0  0  0  0  0  0  0  0  0  0
   10.7611    6.0666   -7.5399 H   0  0  0  0  0  0  0  0  0  0  0  0
    9.2740    5.7603   -9.5026 H   0  0  0  0  0  0  0  0  0  0  0  0
    8.7184    4.2122   -8.8579 H   0  0  0  0  0  0  0  0  0  0  0  0
    8.3354    5.7112   -8.0053 H   0  0  0  0  0  0  0  0  0  0  0  0
   11.6705    2.5390   -2.7263 H   0  0  0  0  0  0  0  0  0  0  0  0
   12.4040    1.5906   -0.4154 H   0  0  0  0  0  0  0  0  0  0  0  0
  1  2  2  0  0  0  0
  2  3  1  0  0  0  0
  3  4  2  0  0  0  0
  4  5  1  0  0  0  0
  5  6  1  0  0  0  0
  6  7  1  0  0  0  0
  7  8  1  0  0  0  0
  8  9  1  0  0  0  0
  7 10  2  0  0  0  0
 10 11  1  0  0  0  0
 10 12  1  0  0  0  0
 12 13  1  0  0  0  0
  4 14  1  0  0  0  0
 14 15  2  0  0  0  0
 15 16  1  0  0  0  0
 16 17  1  0  0  0  0
 17 18  1  0  0  0  0
 18 19  1  0  0  0  0
 19 20  1  0  0  0  0
 20 21  1  0  0  0  0
 19 22  2  0  0  0  0
 22 23  1  0  0  0  0
 23 24  1  0  0  0  0
 22 25  1  0  0  0  0
 16 26  2  0  0  0  0
 26 27  1  0  0  0  0
 15 28  1  0  0  0  0
 28 29  2  0  0  0  0
 29 30  1  0  0  0  0
 29 31  1  0  0  0  0
 31 32  2  0  0  0  0
 32 33  1  0  0  0  0
 33 34  2  0  0  0  0
 34 35  1  0  0  0  0
 35 36  1  0  0  0  0
 36 37  1  0  0  0  0
 37 38  1  0  0  0  0
 38 39  1  0  0  0  0
 37 40  2  0  0  0  0
 40 41  1  0  0  0  0
 40 42  1  0  0  0  0
 42 43  1  0  0  0  0
 34 44  1  0  0  0  0
 44 45  2  0  0  0  0
 45 46  1  0  0  0  0
 46 47  1  0  0  0  0
 47 48  1  0  0  0  0
 48 49  1  0  0  0  0
 49 50  1  0  0  0  0
 50 51  1  0  0  0  0
 49 52  2  0  0  0  0
 52 53  1  0  0  0  0
 53 54  1  0  0  0  0
 52 55  1  0  0  0  0
 46 56  2  0  0  0  0
 56 57  1  0  0  0  0
 45 58  1  0  0  0  0
 58 59  2  0  0  0  0
 59 60  1  0  0  0  0
 59 61  1  0  0  0  0
 61 62  2  0  0  0  0
 62 63  1  0  0  0  0
 63 64  2  0  0  0  0
 64 65  1  0  0  0  0
 65 66  1  0  0  0  0
 66 67  1  0  0  0  0
 67 68  1  0  0  0  0
 68 69  1  0  0  0  0
 67 70  2  0  0  0  0
 70 71  1  0  0  0  0
 70 72  1  0  0  0  0
 72 73  1  0  0  0  0
 64 74  1  0  0  0  0
 74 75  2  0  0  0  0
 75 76  1  0  0  0  0
 76 77  1  0  0  0  0
 77 78  1  0  0  0  0
 78 79  1  0  0  0  0
 79 80  1  0  0  0  0
 80 81  1  0  0  0  0
 79 82  2  0  0  0  0
 82 83  1  0  0  0  0
 83 84  1  0  0  0  0
 82 85  1  0  0  0  0
 76 86  2  0  0  0  0
 86 87  1  0  0  0  0
 75 88  1  0  0  0  0
 88 89  2  0  0  0  0
 89 90  1  0  0  0  0
 89 91  1  0  0  0  0
 91 92  1  0  0  0  0
 91 93  2  0  0  0  0
 93 94  1  0  0  0  0
 94 95  2  0  0  0  0
 94 96  1  0  0  0  0
 96 97  1  0  0  0  0
 97 98  2  0  0  0  0
 97 99  1  0  0  0  0
 99100  2  0  0  0  0
100101  1  0  0  0  0
101102  2  0  0  0  0
102103  1  0  0  0  0
103104  2  0  0  0  0
104105  1  0  0  0  0
105106  2  0  0  0  0
106107  1  0  0  0  0
107108  1  0  0  0  0
108109  1  0  0  0  0
109110  1  0  0  0  0
110111  1  0  0  0  0
109112  2  0  0  0  0
112113  1  0  0  0  0
112114  1  0  0  0  0
114115  1  0  0  0  0
106116  1  0  0  0  0
116117  2  0  0  0  0
117118  1  0  0  0  0
118119  1  0  0  0  0
119120  1  0  0  0  0
120121  1  0  0  0  0
121122  1  0  0  0  0
122123  1  0  0  0  0
121124  2  0  0  0  0
124125  1  0  0  0  0
125126  1  0  0  0  0
124127  1  0  0  0  0
118128  2  0  0  0  0
128129  1  0  0  0  0
117130  1  0  0  0  0
130131  2  0  0  0  0
131132  1  0  0  0  0
131133  1  0  0  0  0
133134  2  0  0  0  0
134135  1  0  0  0  0
135136  2  0  0  0  0
136137  1  0  0  0  0
137138  1  0  0  0  0
138139  1  0  0  0  0
139140  1  0  0  0  0
140141  1  0  0  0  0
139142  2  0  0  0  0
142143  1  0  0  0  0
142144  1  0  0  0  0
144145  1  0  0  0  0
136146  1  0  0  0  0
146147  2  0  0  0  0
147148  1  0  0  0  0
148149  1  0  0  0  0
149150  1  0  0  0  0
150151  1  0  0  0  0
151152  1  0  0  0  0
152153  1  0  0  0  0
151154  2  0  0  0  0
154155  1  0  0  0  0
155156  1  0  0  0  0
154157  1  0  0  0  0
148158  2  0  0  0  0
158159  1  0  0  0  0
147160  1  0  0  0  0
160161  2  0  0  0  0
161162  1  0  0  0  0
 27  1  1  0  0  0  0
 57 31  1  0  0  0  0
 87 61  1  0  0  0  0
100 92  1  0  0  0  0
129103  1  0  0  0  0
159133  1  0  0  0  0
 26  3  1  0  0  0  0
 56 33  1  0  0  0  0
 86 63  1  0  0  0  0
 99 93  1  0  0  0  0
128105  1  0  0  0  0
158135  1  0  0  0  0
 12  5  2  0  0  0  0
 30 14  1  0  0  0  0
 42 35  2  0  0  0  0
 60 44  1  0  0  0  0
 72 65  2  0  0  0  0
 90 74  1  0  0  0  0
114107  2  0  0  0  0
132116  1  0  0  0  0
144137  2  0  0  0  0
162146  1  0  0  0  0
 23 17  2  0  0  0  0
 53 47  2  0  0  0  0
 83 77  2  0  0  0  0
125119  2  0  0  0  0
155149  2  0  0  0  0
  1163  1  0  0  0  0
  2164  1  0  0  0  0
  8165  1  0  0  0  0
  8166  1  0  0  0  0
  9167  1  0  0  0  0
  9168  1  0  0  0  0
  9169  1  0  0  0  0
 20170  1  0  0  0  0
 20171  1  0  0  0  0
 21172  1  0  0  0  0
 21173  1  0  0  0  0
 21174  1  0  0  0  0
 28175  1  0  0  0  0
 32176  1  0  0  0  0
 38177  1  0  0  0  0
 38178  1  0  0  0  0
 39179  1  0  0  0  0
 39180  1  0  0  0  0
 39181  1  0  0  0  0
 50182  1  0  0  0  0
 50183  1  0  0  0  0
 51184  1  0  0  0  0
 51185  1  0  0  0  0
 51186  1  0  0  0  0
 58187  1  0  0  0  0
 62188  1  0  0  0  0
 68189  1  0  0  0  0
 68190  1  0  0  0  0
 69191  1  0  0  0  0
 69192  1  0  0  0  0
 69193  1  0  0  0  0
 80194  1  0  0  0  0
 80195  1  0  0  0  0
 81196  1  0  0  0  0
 81197  1  0  0  0  0
 81198  1  0  0  0  0
 88199  1  0  0  0  0
 96200  1  0  0  0  0
101201  1  0  0  0  0
102202  1  0  0  0  0
104203  1  0  0  0  0
110204  1  0  0  0  0
110205  1  0  0  0  0
111206  1  0  0  0  0
111207  1  0  0  0  0
111208  1  0  0  0  0
122209  1  0  0  0  0
122210  1  0  0  0  0
123211  1  0  0  0  0
123212  1  0  0  0  0
123213  1  0  0  0  0
130214  1  0  0  0  0
134215  1  0  0  0  0
140216  1  0  0  0  0
140217  1  0  0  0  0
141218  1  0  0  0  0
141219  1  0  0  0  0
141220  1  0  0  0  0
152221  1  0  0  0  0
152222  1  0  0  0  0
153223  1  0  0  0  0
153224  1  0  0  0  0
153225  1  0  0  0  0
160226  1  0  0  0  0
161227  1  0  0  0  0
M  END
