
  xtb     03032202313D
 energy: -471.530123451282 gnorm: 0.000555845832 xtb: 6.4.1 (unknown)
247274  0     0  0            999 V2000
   10.5566   -2.6304    0.9284 C   0  0  0  0  0  0  0  0  0  0  0  0
   10.6285   -2.3285   -0.3839 C   0  0  0  0  0  0  0  0  0  0  0  0
    9.3677   -2.4236   -1.0415 C   0  0  0  0  0  0  0  0  0  0  0  0
    9.0599   -2.1293   -2.3781 C   0  0  0  0  0  0  0  0  0  0  0  0
   10.0630   -1.6120   -3.2956 C   0  0  0  0  0  0  0  0  0  0  0  0
   10.3745   -2.3828   -4.8217 S   0  0  0  0  0  0  0  0  0  0  0  0
   11.5837   -1.2210   -5.2492 C   0  0  0  0  0  0  0  0  0  0  0  0
   12.2729   -1.2798   -6.5675 C   0  0  0  0  0  0  0  0  0  0  0  0
   11.3810   -0.7112   -7.6738 C   0  0  0  0  0  0  0  0  0  0  0  0
   11.7176   -0.2906   -4.2623 C   0  0  0  0  0  0  0  0  0  0  0  0
   12.8128    1.0292   -4.3298 Cl  0  0  0  0  0  0  0  0  0  0  0  0
   10.8612   -0.5123   -3.1500 C   0  0  0  0  0  0  0  0  0  0  0  0
   10.7956    0.5530   -1.8055 Cl  0  0  0  0  0  0  0  0  0  0  0  0
    7.7466   -2.3285   -2.7807 C   0  0  0  0  0  0  0  0  0  0  0  0
    6.7338   -2.7925   -1.9073 C   0  0  0  0  0  0  0  0  0  0  0  0
    7.0323   -3.0573   -0.5609 C   0  0  0  0  0  0  0  0  0  0  0  0
    6.0086   -3.4762    0.3841 C   0  0  0  0  0  0  0  0  0  0  0  0
    4.5624   -2.5373    0.6319 S   0  0  0  0  0  0  0  0  0  0  0  0
    3.9978   -3.5869    1.8927 C   0  0  0  0  0  0  0  0  0  0  0  0
    2.7228   -3.3200    2.6164 C   0  0  0  0  0  0  0  0  0  0  0  0
    2.7216   -1.9331    3.2573 C   0  0  0  0  0  0  0  0  0  0  0  0
    4.8863   -4.6012    2.0878 C   0  0  0  0  0  0  0  0  0  0  0  0
    6.0216   -4.5457    1.2343 C   0  0  0  0  0  0  0  0  0  0  0  0
    7.2241   -5.7646    1.2398 Cl  0  0  0  0  0  0  0  0  0  0  0  0
    4.6957   -5.8387    3.2620 Cl  0  0  0  0  0  0  0  0  0  0  0  0
    8.3500   -2.8627   -0.1599 C   0  0  0  0  0  0  0  0  0  0  0  0
    8.9697   -3.0693    1.4533 S   0  0  0  0  0  0  0  0  0  0  0  0
    5.4852   -2.9108   -2.5668 C   0  0  0  0  0  0  0  0  0  0  0  0
    5.5196   -2.5113   -3.8692 C   0  0  0  0  0  0  0  0  0  0  0  0
    7.1150   -1.9910   -4.3680 S   0  0  0  0  0  0  0  0  0  0  0  0
    4.4081   -2.4056   -4.7581 C   0  0  0  0  0  0  0  0  0  0  0  0
    4.2881   -1.6204   -5.8651 C   0  0  0  0  0  0  0  0  0  0  0  0
    2.9713   -1.5888   -6.3896 C   0  0  0  0  0  0  0  0  0  0  0  0
    2.4481   -0.7000   -7.3444 C   0  0  0  0  0  0  0  0  0  0  0  0
    3.2635    0.3408   -7.9541 C   0  0  0  0  0  0  0  0  0  0  0  0
    3.3800    0.5106   -9.6781 S   0  0  0  0  0  0  0  0  0  0  0  0
    4.3880    1.9110   -9.5487 C   0  0  0  0  0  0  0  0  0  0  0  0
    4.9389    2.5819  -10.7582 C   0  0  0  0  0  0  0  0  0  0  0  0
    6.2231    1.8948  -11.2289 C   0  0  0  0  0  0  0  0  0  0  0  0
    4.6127    2.2139   -8.2390 C   0  0  0  0  0  0  0  0  0  0  0  0
    5.5694    3.5374   -7.7133 Cl  0  0  0  0  0  0  0  0  0  0  0  0
    3.9704    1.3305   -7.3310 C   0  0  0  0  0  0  0  0  0  0  0  0
    4.0230    1.5480   -5.6282 Cl  0  0  0  0  0  0  0  0  0  0  0  0
    1.0809   -0.7474   -7.5645 C   0  0  0  0  0  0  0  0  0  0  0  0
    0.2275   -1.6776   -6.9234 C   0  0  0  0  0  0  0  0  0  0  0  0
    0.7419   -2.5607   -5.9564 C   0  0  0  0  0  0  0  0  0  0  0  0
   -0.1419   -3.3908   -5.1537 C   0  0  0  0  0  0  0  0  0  0  0  0
   -1.5575   -2.7068   -4.3950 S   0  0  0  0  0  0  0  0  0  0  0  0
   -2.0195   -4.2219   -3.6981 C   0  0  0  0  0  0  0  0  0  0  0  0
   -3.3199   -4.3520   -2.9863 C   0  0  0  0  0  0  0  0  0  0  0  0
   -4.4797   -4.2609   -3.9807 C   0  0  0  0  0  0  0  0  0  0  0  0
   -1.1074   -5.1836   -4.0141 C   0  0  0  0  0  0  0  0  0  0  0  0
   -0.0377   -4.7147   -4.8279 C   0  0  0  0  0  0  0  0  0  0  0  0
    1.1911   -5.7571   -5.4085 Cl  0  0  0  0  0  0  0  0  0  0  0  0
   -1.2148   -6.8159   -3.4980 Cl  0  0  0  0  0  0  0  0  0  0  0  0
    2.1039   -2.4710   -5.6972 C   0  0  0  0  0  0  0  0  0  0  0  0
    2.9239   -3.2515   -4.3800 S   0  0  0  0  0  0  0  0  0  0  0  0
   -1.1350   -1.3973   -7.1754 C   0  0  0  0  0  0  0  0  0  0  0  0
   -1.3359   -0.2119   -7.8235 C   0  0  0  0  0  0  0  0  0  0  0  0
    0.1679    0.4767   -8.4106 S   0  0  0  0  0  0  0  0  0  0  0  0
   -2.4766    0.6103   -7.5706 C   0  0  0  0  0  0  0  0  0  0  0  0
   -2.4161    1.9631   -7.3995 C   0  0  0  0  0  0  0  0  0  0  0  0
   -3.3414    2.4475   -6.4408 C   0  0  0  0  0  0  0  0  0  0  0  0
   -3.2705    3.6696   -5.7498 C   0  0  0  0  0  0  0  0  0  0  0  0
   -2.2652    4.6681   -6.0827 C   0  0  0  0  0  0  0  0  0  0  0  0
   -0.5808    4.2331   -6.1749 S   0  0  0  0  0  0  0  0  0  0  0  0
   -0.0952    5.8570   -6.5170 C   0  0  0  0  0  0  0  0  0  0  0  0
    1.3371    6.2083   -6.7319 C   0  0  0  0  0  0  0  0  0  0  0  0
    2.1328    5.0566   -7.3367 C   0  0  0  0  0  0  0  0  0  0  0  0
   -1.1830    6.6785   -6.5402 C   0  0  0  0  0  0  0  0  0  0  0  0
   -1.1011    8.3649   -6.8526 Cl  0  0  0  0  0  0  0  0  0  0  0  0
   -2.4112    6.0104   -6.2848 C   0  0  0  0  0  0  0  0  0  0  0  0
   -3.9211    6.8144   -6.3095 Cl  0  0  0  0  0  0  0  0  0  0  0  0
   -4.0467    3.7854   -4.6024 C   0  0  0  0  0  0  0  0  0  0  0  0
   -4.9050    2.7573   -4.1436 C   0  0  0  0  0  0  0  0  0  0  0  0
   -5.0239    1.5605   -4.8690 C   0  0  0  0  0  0  0  0  0  0  0  0
   -5.7915    0.4254   -4.3829 C   0  0  0  0  0  0  0  0  0  0  0  0
   -5.5935   -0.1872   -2.7656 S   0  0  0  0  0  0  0  0  0  0  0  0
   -6.6974   -1.4919   -3.0366 C   0  0  0  0  0  0  0  0  0  0  0  0
   -7.0661   -2.4255   -1.9371 C   0  0  0  0  0  0  0  0  0  0  0  0
   -8.0771   -1.7789   -0.9873 C   0  0  0  0  0  0  0  0  0  0  0  0
   -7.1789   -1.4460   -4.3107 C   0  0  0  0  0  0  0  0  0  0  0  0
   -6.6587   -0.3697   -5.0796 C   0  0  0  0  0  0  0  0  0  0  0  0
   -7.1447   -0.0743   -6.6962 Cl  0  0  0  0  0  0  0  0  0  0  0  0
   -8.2990   -2.5763   -4.9533 Cl  0  0  0  0  0  0  0  0  0  0  0  0
   -4.2144    1.4284   -5.9893 C   0  0  0  0  0  0  0  0  0  0  0  0
   -3.8793   -0.0888   -6.7778 S   0  0  0  0  0  0  0  0  0  0  0  0
   -5.3776    3.0167   -2.8294 C   0  0  0  0  0  0  0  0  0  0  0  0
   -4.8765    4.1505   -2.2789 C   0  0  0  0  0  0  0  0  0  0  0  0
   -3.8735    5.0452   -3.4105 S   0  0  0  0  0  0  0  0  0  0  0  0
   -4.8259    4.4420   -0.8469 C   0  0  0  0  0  0  0  0  0  0  0  0
   -4.2082    3.4601   -0.0816 C   0  0  0  0  0  0  0  0  0  0  0  0
   -3.9379    3.6049    1.2831 C   0  0  0  0  0  0  0  0  0  0  0  0
   -4.2821    4.8003    1.9133 C   0  0  0  0  0  0  0  0  0  0  0  0
   -4.9217    5.7825    1.1809 C   0  0  0  0  0  0  0  0  0  0  0  0
   -5.2272    5.6118   -0.1955 C   0  0  0  0  0  0  0  0  0  0  0  0
   -5.9058    6.7087   -0.6578 N   0  0  0  0  0  0  0  0  0  0  0  0
   -6.0247    7.6141    0.3800 C   0  0  0  0  0  0  0  0  0  0  0  0
   -5.4188    7.0786    1.5410 C   0  0  0  0  0  0  0  0  0  0  0  0
   -5.3986    7.7950    2.7300 C   0  0  0  0  0  0  0  0  0  0  0  0
   -5.9784    9.0462    2.7563 C   0  0  0  0  0  0  0  0  0  0  0  0
   -6.5661    9.5774    1.6113 C   0  0  0  0  0  0  0  0  0  0  0  0
   -6.5970    8.8798    0.4192 C   0  0  0  0  0  0  0  0  0  0  0  0
   -6.6091    6.7598   -1.9252 C   0  0  0  0  0  0  0  0  0  0  0  0
   -6.0657    7.8852   -2.8159 C   0  0  0  0  0  0  0  0  0  0  0  0
   -6.5525    7.7748   -4.2551 C   0  0  0  0  0  0  0  0  0  0  0  0
   -8.1262    6.8173   -1.6983 C   0  0  0  0  0  0  0  0  0  0  0  0
   -8.6160    5.6205   -0.8904 C   0  0  0  0  0  0  0  0  0  0  0  0
   -3.2896    2.5331    2.0077 C   0  0  0  0  0  0  0  0  0  0  0  0
   -3.1831    2.3858    3.3565 C   0  0  0  0  0  0  0  0  0  0  0  0
   -2.4900    1.2175    3.7600 C   0  0  0  0  0  0  0  0  0  0  0  0
   -2.2476    0.7683    5.0690 C   0  0  0  0  0  0  0  0  0  0  0  0
   -2.6061    1.5742    6.2231 C   0  0  0  0  0  0  0  0  0  0  0  0
   -3.5321    0.9140    7.5391 S   0  0  0  0  0  0  0  0  0  0  0  0
   -3.5043    2.4070    8.4116 C   0  0  0  0  0  0  0  0  0  0  0  0
   -4.2166    2.5588    9.7101 C   0  0  0  0  0  0  0  0  0  0  0  0
   -5.6637    3.0073    9.4914 C   0  0  0  0  0  0  0  0  0  0  0  0
   -2.8181    3.3535    7.7102 C   0  0  0  0  0  0  0  0  0  0  0  0
   -2.5772    4.9619    8.2593 Cl  0  0  0  0  0  0  0  0  0  0  0  0
   -2.3032    2.8849    6.4725 C   0  0  0  0  0  0  0  0  0  0  0  0
   -1.3280    3.8638    5.4518 Cl  0  0  0  0  0  0  0  0  0  0  0  0
   -1.6574   -0.4811    5.2055 C   0  0  0  0  0  0  0  0  0  0  0  0
   -1.2667   -1.2696    4.0980 C   0  0  0  0  0  0  0  0  0  0  0  0
   -1.4679   -0.7985    2.7889 C   0  0  0  0  0  0  0  0  0  0  0  0
   -1.0776   -1.6459    1.6664 C   0  0  0  0  0  0  0  0  0  0  0  0
    0.2196   -1.2559    0.5788 S   0  0  0  0  0  0  0  0  0  0  0  0
    0.0770   -2.7663   -0.2617 C   0  0  0  0  0  0  0  0  0  0  0  0
    0.9857   -3.1072   -1.3943 C   0  0  0  0  0  0  0  0  0  0  0  0
    1.7790   -4.3912   -1.1471 C   0  0  0  0  0  0  0  0  0  0  0  0
   -0.9359   -3.5076    0.2720 C   0  0  0  0  0  0  0  0  0  0  0  0
   -1.5817   -2.8800    1.3704 C   0  0  0  0  0  0  0  0  0  0  0  0
   -2.8887   -3.5994    2.2203 Cl  0  0  0  0  0  0  0  0  0  0  0  0
   -1.4170   -5.0545   -0.2948 Cl  0  0  0  0  0  0  0  0  0  0  0  0
   -2.0782    0.4379    2.6499 C   0  0  0  0  0  0  0  0  0  0  0  0
   -2.5279    1.2001    1.1511 S   0  0  0  0  0  0  0  0  0  0  0  0
   -0.6810   -2.4958    4.5016 C   0  0  0  0  0  0  0  0  0  0  0  0
   -0.6263   -2.6511    5.8542 C   0  0  0  0  0  0  0  0  0  0  0  0
   -1.2819   -1.2696    6.7112 S   0  0  0  0  0  0  0  0  0  0  0  0
   -0.1528   -3.7787    6.5860 C   0  0  0  0  0  0  0  0  0  0  0  0
   -0.1400   -3.9407    7.9382 C   0  0  0  0  0  0  0  0  0  0  0  0
    0.3378   -5.2093    8.3512 C   0  0  0  0  0  0  0  0  0  0  0  0
    0.4389   -5.7139    9.6584 C   0  0  0  0  0  0  0  0  0  0  0  0
   -0.0535   -4.9525   10.7933 C   0  0  0  0  0  0  0  0  0  0  0  0
    0.9360   -4.6514   12.1904 S   0  0  0  0  0  0  0  0  0  0  0  0
   -0.3168   -3.7592   12.9826 C   0  0  0  0  0  0  0  0  0  0  0  0
   -0.0927   -3.1256   14.3111 C   0  0  0  0  0  0  0  0  0  0  0  0
    0.5480   -1.7439   14.1587 C   0  0  0  0  0  0  0  0  0  0  0  0
   -1.4284   -3.7024   12.1958 C   0  0  0  0  0  0  0  0  0  0  0  0
   -2.8779   -2.9011   12.6444 Cl  0  0  0  0  0  0  0  0  0  0  0  0
   -1.2862   -4.3813   10.9566 C   0  0  0  0  0  0  0  0  0  0  0  0
   -2.5776   -4.5274    9.8341 Cl  0  0  0  0  0  0  0  0  0  0  0  0
    1.0134   -6.9709    9.8041 C   0  0  0  0  0  0  0  0  0  0  0  0
    1.4336   -7.7577    8.7058 C   0  0  0  0  0  0  0  0  0  0  0  0
    1.2583   -7.2856    7.3949 C   0  0  0  0  0  0  0  0  0  0  0  0
    1.5899   -8.1029    6.2406 C   0  0  0  0  0  0  0  0  0  0  0  0
    2.5825   -7.4859    4.9561 S   0  0  0  0  0  0  0  0  0  0  0  0
    2.4676   -8.9549    4.0507 C   0  0  0  0  0  0  0  0  0  0  0  0
    3.1886   -9.1287    2.7600 C   0  0  0  0  0  0  0  0  0  0  0  0
    4.6318   -9.5815    2.9932 C   0  0  0  0  0  0  0  0  0  0  0  0
    1.7035   -9.8627    4.7219 C   0  0  0  0  0  0  0  0  0  0  0  0
    1.1991   -9.3829    5.9603 C   0  0  0  0  0  0  0  0  0  0  0  0
    0.1347  -10.3064    6.9411 Cl  0  0  0  0  0  0  0  0  0  0  0  0
    1.3586  -11.4398    4.1384 Cl  0  0  0  0  0  0  0  0  0  0  0  0
    0.7396   -6.0050    7.2516 C   0  0  0  0  0  0  0  0  0  0  0  0
    0.4625   -5.1855    5.7402 S   0  0  0  0  0  0  0  0  0  0  0  0
    2.0168   -8.9862    9.1339 C   0  0  0  0  0  0  0  0  0  0  0  0
    2.0018   -9.1333   10.4738 C   0  0  0  0  0  0  0  0  0  0  0  0
    1.2899   -7.7974   11.3115 S   0  0  0  0  0  0  0  0  0  0  0  0
   11.3521   -2.6328    1.6477 H   0  0  0  0  0  0  0  0  0  0  0  0
   11.5382   -2.0525   -0.8838 H   0  0  0  0  0  0  0  0  0  0  0  0
   13.1963   -0.7017   -6.5054 H   0  0  0  0  0  0  0  0  0  0  0  0
   12.5231   -2.3162   -6.8014 H   0  0  0  0  0  0  0  0  0  0  0  0
   11.8936   -0.7633   -8.6304 H   0  0  0  0  0  0  0  0  0  0  0  0
   10.4558   -1.2787   -7.7400 H   0  0  0  0  0  0  0  0  0  0  0  0
   11.1375    0.3274   -7.4644 H   0  0  0  0  0  0  0  0  0  0  0  0
    2.5948   -4.0886    3.3814 H   0  0  0  0  0  0  0  0  0  0  0  0
    1.8831   -3.3902    1.9192 H   0  0  0  0  0  0  0  0  0  0  0  0
    2.8121   -1.1650    2.4928 H   0  0  0  0  0  0  0  0  0  0  0  0
    3.5527   -1.8368    3.9514 H   0  0  0  0  0  0  0  0  0  0  0  0
    1.7946   -1.7733    3.8015 H   0  0  0  0  0  0  0  0  0  0  0  0
    4.5875   -3.2565   -2.0876 H   0  0  0  0  0  0  0  0  0  0  0  0
    5.1046   -1.0439   -6.2606 H   0  0  0  0  0  0  0  0  0  0  0  0
    5.1507    3.6244  -10.5135 H   0  0  0  0  0  0  0  0  0  0  0  0
    4.1974    2.5527  -11.5580 H   0  0  0  0  0  0  0  0  0  0  0  0
    6.0246    0.8553  -11.4784 H   0  0  0  0  0  0  0  0  0  0  0  0
    6.6139    2.3972  -12.1095 H   0  0  0  0  0  0  0  0  0  0  0  0
    6.9766    1.9270  -10.4460 H   0  0  0  0  0  0  0  0  0  0  0  0
   -3.4141   -3.5574   -2.2429 H   0  0  0  0  0  0  0  0  0  0  0  0
   -3.3454   -5.3151   -2.4757 H   0  0  0  0  0  0  0  0  0  0  0  0
   -5.4258   -4.4077   -3.4684 H   0  0  0  0  0  0  0  0  0  0  0  0
   -4.3792   -5.0253   -4.7472 H   0  0  0  0  0  0  0  0  0  0  0  0
   -4.4919   -3.2853   -4.4621 H   0  0  0  0  0  0  0  0  0  0  0  0
   -1.9511   -1.9722   -6.7807 H   0  0  0  0  0  0  0  0  0  0  0  0
   -1.6368    2.5592   -7.8365 H   0  0  0  0  0  0  0  0  0  0  0  0
    1.7828    6.4899   -5.7721 H   0  0  0  0  0  0  0  0  0  0  0  0
    1.3811    7.0848   -7.3827 H   0  0  0  0  0  0  0  0  0  0  0  0
    2.1199    4.1952   -6.6724 H   0  0  0  0  0  0  0  0  0  0  0  0
    1.7099    4.7579   -8.2931 H   0  0  0  0  0  0  0  0  0  0  0  0
    3.1653    5.3567   -7.4923 H   0  0  0  0  0  0  0  0  0  0  0  0
   -7.5020   -3.3252   -2.3747 H   0  0  0  0  0  0  0  0  0  0  0  0
   -6.1716   -2.7024   -1.3761 H   0  0  0  0  0  0  0  0  0  0  0  0
   -7.6538   -0.8833   -0.5386 H   0  0  0  0  0  0  0  0  0  0  0  0
   -8.9805   -1.5056   -1.5268 H   0  0  0  0  0  0  0  0  0  0  0  0
   -8.3416   -2.4739   -0.1951 H   0  0  0  0  0  0  0  0  0  0  0  0
   -6.0271    2.3543   -2.2876 H   0  0  0  0  0  0  0  0  0  0  0  0
   -3.8998    2.5489   -0.5745 H   0  0  0  0  0  0  0  0  0  0  0  0
   -4.0470    4.9694    2.9515 H   0  0  0  0  0  0  0  0  0  0  0  0
   -4.9333    7.3780    3.6101 H   0  0  0  0  0  0  0  0  0  0  0  0
   -5.9747    9.6246    3.6677 H   0  0  0  0  0  0  0  0  0  0  0  0
   -7.0078   10.5622    1.6539 H   0  0  0  0  0  0  0  0  0  0  0  0
   -7.0519    9.3304   -0.4480 H   0  0  0  0  0  0  0  0  0  0  0  0
   -6.3969    5.8090   -2.4262 H   0  0  0  0  0  0  0  0  0  0  0  0
   -6.3449    8.8586   -2.4135 H   0  0  0  0  0  0  0  0  0  0  0  0
   -4.9749    7.8204   -2.8036 H   0  0  0  0  0  0  0  0  0  0  0  0
   -6.0450    8.5094   -4.8751 H   0  0  0  0  0  0  0  0  0  0  0  0
   -7.6220    7.9556   -4.3273 H   0  0  0  0  0  0  0  0  0  0  0  0
   -6.3408    6.7861   -4.6556 H   0  0  0  0  0  0  0  0  0  0  0  0
   -8.3993    7.7375   -1.1828 H   0  0  0  0  0  0  0  0  0  0  0  0
   -8.6174    6.8163   -2.6715 H   0  0  0  0  0  0  0  0  0  0  0  0
   -8.3447    4.6890   -1.3841 H   0  0  0  0  0  0  0  0  0  0  0  0
   -9.6977    5.6529   -0.7876 H   0  0  0  0  0  0  0  0  0  0  0  0
   -8.1807    5.6190    0.1067 H   0  0  0  0  0  0  0  0  0  0  0  0
   -3.6213    3.0688    4.0594 H   0  0  0  0  0  0  0  0  0  0  0  0
   -4.2069    1.6055   10.2409 H   0  0  0  0  0  0  0  0  0  0  0  0
   -3.6924    3.3023   10.3139 H   0  0  0  0  0  0  0  0  0  0  0  0
   -5.6876    3.9644    8.9765 H   0  0  0  0  0  0  0  0  0  0  0  0
   -6.1700    3.1130   10.4470 H   0  0  0  0  0  0  0  0  0  0  0  0
   -6.1988    2.2754    8.8911 H   0  0  0  0  0  0  0  0  0  0  0  0
    1.6724   -2.2750   -1.5560 H   0  0  0  0  0  0  0  0  0  0  0  0
    0.3898   -3.2349   -2.3013 H   0  0  0  0  0  0  0  0  0  0  0  0
    1.1107   -5.2306   -0.9848 H   0  0  0  0  0  0  0  0  0  0  0  0
    2.3940   -4.6110   -2.0152 H   0  0  0  0  0  0  0  0  0  0  0  0
    2.4232   -4.2876   -0.2784 H   0  0  0  0  0  0  0  0  0  0  0  0
   -0.3269   -3.2464    3.8178 H   0  0  0  0  0  0  0  0  0  0  0  0
   -0.4576   -3.1690    8.6156 H   0  0  0  0  0  0  0  0  0  0  0  0
   -1.0540   -3.0284   14.8192 H   0  0  0  0  0  0  0  0  0  0  0  0
    0.5583   -3.7639   14.9106 H   0  0  0  0  0  0  0  0  0  0  0  0
    1.5081   -1.8272   13.6551 H   0  0  0  0  0  0  0  0  0  0  0  0
    0.7034   -1.2951   15.1359 H   0  0  0  0  0  0  0  0  0  0  0  0
   -0.0963   -1.0923   13.5739 H   0  0  0  0  0  0  0  0  0  0  0  0
    3.1901   -8.1829    2.2159 H   0  0  0  0  0  0  0  0  0  0  0  0
    2.6624   -9.8762    2.1634 H   0  0  0  0  0  0  0  0  0  0  0  0
    4.6500  -10.5307    3.5229 H   0  0  0  0  0  0  0  0  0  0  0  0
    5.1678   -8.8426    3.5839 H   0  0  0  0  0  0  0  0  0  0  0  0
    5.1422   -9.7019    2.0415 H   0  0  0  0  0  0  0  0  0  0  0  0
    2.4382   -9.7086    8.4598 H   0  0  0  0  0  0  0  0  0  0  0  0
    2.3734   -9.9578   11.0501 H   0  0  0  0  0  0  0  0  0  0  0  0
  1  2  2  0  0  0  0
  2  3  1  0  0  0  0
  3  4  2  0  0  0  0
  4  5  1  0  0  0  0
  5  6  1  0  0  0  0
  6  7  1  0  0  0  0
  7  8  1  0  0  0  0
  8  9  1  0  0  0  0
  7 10  2  0  0  0  0
 10 11  1  0  0  0  0
 10 12  1  0  0  0  0
 12 13  1  0  0  0  0
  4 14  1  0  0  0  0
 14 15  2  0  0  0  0
 15 16  1  0  0  0  0
 16 17  1  0  0  0  0
 17 18  1  0  0  0  0
 18 19  1  0  0  0  0
 19 20  1  0  0  0  0
 20 21  1  0  0  0  0
 19 22  2  0  0  0  0
 22 23  1  0  0  0  0
 23 24  1  0  0  0  0
 22 25  1  0  0  0  0
 16 26  2  0  0  0  0
 26 27  1  0  0  0  0
 15 28  1  0  0  0  0
 28 29  2  0  0  0  0
 29 30  1  0  0  0  0
 29 31  1  0  0  0  0
 31 32  2  0  0  0  0
 32 33  1  0  0  0  0
 33 34  2  0  0  0  0
 34 35  1  0  0  0  0
 35 36  1  0  0  0  0
 36 37  1  0  0  0  0
 37 38  1  0  0  0  0
 38 39  1  0  0  0  0
 37 40  2  0  0  0  0
 40 41  1  0  0  0  0
 40 42  1  0  0  0  0
 42 43  1  0  0  0  0
 34 44  1  0  0  0  0
 44 45  2  0  0  0  0
 45 46  1  0  0  0  0
 46 47  1  0  0  0  0
 47 48  1  0  0  0  0
 48 49  1  0  0  0  0
 49 50  1  0  0  0  0
 50 51  1  0  0  0  0
 49 52  2  0  0  0  0
 52 53  1  0  0  0  0
 53 54  1  0  0  0  0
 52 55  1  0  0  0  0
 46 56  2  0  0  0  0
 56 57  1  0  0  0  0
 45 58  1  0  0  0  0
 58 59  2  0  0  0  0
 59 60  1  0  0  0  0
 59 61  1  0  0  0  0
 61 62  2  0  0  0  0
 62 63  1  0  0  0  0
 63 64  2  0  0  0  0
 64 65  1  0  0  0  0
 65 66  1  0  0  0  0
 66 67  1  0  0  0  0
 67 68  1  0  0  0  0
 68 69  1  0  0  0  0
 67 70  2  0  0  0  0
 70 71  1  0  0  0  0
 70 72  1  0  0  0  0
 72 73  1  0  0  0  0
 64 74  1  0  0  0  0
 74 75  2  0  0  0  0
 75 76  1  0  0  0  0
 76 77  1  0  0  0  0
 77 78  1  0  0  0  0
 78 79  1  0  0  0  0
 79 80  1  0  0  0  0
 80 81  1  0  0  0  0
 79 82  2  0  0  0  0
 82 83  1  0  0  0  0
 83 84  1  0  0  0  0
 82 85  1  0  0  0  0
 76 86  2  0  0  0  0
 86 87  1  0  0  0  0
 75 88  1  0  0  0  0
 88 89  2  0  0  0  0
 89 90  1  0  0  0  0
 89 91  1  0  0  0  0
 91 92  2  0  0  0  0
 92 93  1  0  0  0  0
 93 94  2  0  0  0  0
 94 95  1  0  0  0  0
 95 96  2  0  0  0  0
 96 97  1  0  0  0  0
 97 98  1  0  0  0  0
 98 99  2  0  0  0  0
 99100  1  0  0  0  0
100101  2  0  0  0  0
101102  1  0  0  0  0
102103  2  0  0  0  0
 97104  1  0  0  0  0
104105  1  0  0  0  0
105106  1  0  0  0  0
104107  1  0  0  0  0
107108  1  0  0  0  0
 93109  1  0  0  0  0
109110  2  0  0  0  0
110111  1  0  0  0  0
111112  2  0  0  0  0
112113  1  0  0  0  0
113114  1  0  0  0  0
114115  1  0  0  0  0
115116  1  0  0  0  0
116117  1  0  0  0  0
115118  2  0  0  0  0
118119  1  0  0  0  0
118120  1  0  0  0  0
120121  1  0  0  0  0
112122  1  0  0  0  0
122123  2  0  0  0  0
123124  1  0  0  0  0
124125  1  0  0  0  0
125126  1  0  0  0  0
126127  1  0  0  0  0
127128  1  0  0  0  0
128129  1  0  0  0  0
127130  2  0  0  0  0
130131  1  0  0  0  0
131132  1  0  0  0  0
130133  1  0  0  0  0
124134  2  0  0  0  0
134135  1  0  0  0  0
123136  1  0  0  0  0
136137  2  0  0  0  0
137138  1  0  0  0  0
137139  1  0  0  0  0
139140  2  0  0  0  0
140141  1  0  0  0  0
141142  2  0  0  0  0
142143  1  0  0  0  0
143144  1  0  0  0  0
144145  1  0  0  0  0
145146  1  0  0  0  0
146147  1  0  0  0  0
145148  2  0  0  0  0
148149  1  0  0  0  0
148150  1  0  0  0  0
150151  1  0  0  0  0
142152  1  0  0  0  0
152153  2  0  0  0  0
153154  1  0  0  0  0
154155  1  0  0  0  0
155156  1  0  0  0  0
156157  1  0  0  0  0
157158  1  0  0  0  0
158159  1  0  0  0  0
157160  2  0  0  0  0
160161  1  0  0  0  0
161162  1  0  0  0  0
160163  1  0  0  0  0
154164  2  0  0  0  0
164165  1  0  0  0  0
153166  1  0  0  0  0
166167  2  0  0  0  0
167168  1  0  0  0  0
 27  1  1  0  0  0  0
 57 31  1  0  0  0  0
 87 61  1  0  0  0  0
 96 91  1  0  0  0  0
103 98  1  0  0  0  0
135109  1  0  0  0  0
165139  1  0  0  0  0
 26  3  1  0  0  0  0
 56 33  1  0  0  0  0
 86 63  1  0  0  0  0
 99 95  1  0  0  0  0
134111  1  0  0  0  0
164141  1  0  0  0  0
 12  5  2  0  0  0  0
 30 14  1  0  0  0  0
 42 35  2  0  0  0  0
 60 44  1  0  0  0  0
 72 65  2  0  0  0  0
 90 74  1  0  0  0  0
120113  2  0  0  0  0
138122  1  0  0  0  0
150143  2  0  0  0  0
168152  1  0  0  0  0
 23 17  2  0  0  0  0
 53 47  2  0  0  0  0
 83 77  2  0  0  0  0
131125  2  0  0  0  0
161155  2  0  0  0  0
  1169  1  0  0  0  0
  2170  1  0  0  0  0
  8171  1  0  0  0  0
  8172  1  0  0  0  0
  9173  1  0  0  0  0
  9174  1  0  0  0  0
  9175  1  0  0  0  0
 20176  1  0  0  0  0
 20177  1  0  0  0  0
 21178  1  0  0  0  0
 21179  1  0  0  0  0
 21180  1  0  0  0  0
 28181  1  0  0  0  0
 32182  1  0  0  0  0
 38183  1  0  0  0  0
 38184  1  0  0  0  0
 39185  1  0  0  0  0
 39186  1  0  0  0  0
 39187  1  0  0  0  0
 50188  1  0  0  0  0
 50189  1  0  0  0  0
 51190  1  0  0  0  0
 51191  1  0  0  0  0
 51192  1  0  0  0  0
 58193  1  0  0  0  0
 62194  1  0  0  0  0
 68195  1  0  0  0  0
 68196  1  0  0  0  0
 69197  1  0  0  0  0
 69198  1  0  0  0  0
 69199  1  0  0  0  0
 80200  1  0  0  0  0
 80201  1  0  0  0  0
 81202  1  0  0  0  0
 81203  1  0  0  0  0
 81204  1  0  0  0  0
 88205  1  0  0  0  0
 92206  1  0  0  0  0
 94207  1  0  0  0  0
100208  1  0  0  0  0
101209  1  0  0  0  0
102210  1  0  0  0  0
103211  1  0  0  0  0
104212  1  0  0  0  0
105213  1  0  0  0  0
105214  1  0  0  0  0
106215  1  0  0  0  0
106216  1  0  0  0  0
106217  1  0  0  0  0
107218  1  0  0  0  0
107219  1  0  0  0  0
108220  1  0  0  0  0
108221  1  0  0  0  0
108222  1  0  0  0  0
110223  1  0  0  0  0
116224  1  0  0  0  0
116225  1  0  0  0  0
117226  1  0  0  0  0
117227  1  0  0  0  0
117228  1  0  0  0  0
128229  1  0  0  0  0
128230  1  0  0  0  0
129231  1  0  0  0  0
129232  1  0  0  0  0
129233  1  0  0  0  0
136234  1  0  0  0  0
140235  1  0  0  0  0
146236  1  0  0  0  0
146237  1  0  0  0  0
147238  1  0  0  0  0
147239  1  0  0  0  0
147240  1  0  0  0  0
158241  1  0  0  0  0
158242  1  0  0  0  0
159243  1  0  0  0  0
159244  1  0  0  0  0
159245  1  0  0  0  0
166246  1  0  0  0  0
167247  1  0  0  0  0
M  END
