274

C         -7.14140       -4.55850       12.12930
C         -6.09040       -3.77530       11.81450
C         -5.92000       -3.61450       10.40690
C         -4.96280       -2.84300        9.73260
C         -3.88830       -2.13330       10.43790
C         -3.06540       -2.79350       11.34920
C         -2.01650       -2.13430       11.95280
C         -1.75250       -0.79090       11.68650
S         -0.38850       -0.04850       12.52500
C          0.24460        1.18520       11.31750
C          1.71260        1.43900       11.59750
C         -2.60820       -0.13420       10.80710
F         -2.45610        1.18330       10.54340
C         -3.64670       -0.78890       10.17740
C         -5.06100       -2.79970        8.34990
C         -6.05050       -3.50070        7.61860
C         -7.00810       -4.27440        8.29350
C         -8.05450       -4.99200        7.55660
C         -8.30680       -6.34330        7.78710
C         -9.26190       -7.01410        7.05460
C        -10.01490       -6.36630        6.07600
S        -11.21430       -7.31980        5.20080
C        -11.19740       -6.58450        3.51490
C        -11.64850       -7.63200        2.51660
C         -9.78760       -5.00530        5.89210
C         -8.81800       -4.32740        6.60150
F        -10.52280       -4.29170        5.00920
C         -6.91100       -4.31510        9.67780
S         -7.99930       -5.15810       10.75060
C         -5.88200       -3.34150        6.21830
C         -4.82690       -2.55000        5.88090
S         -3.96890       -1.94900        7.28750
C         -4.38820       -2.18540        4.57470
C         -3.29310       -1.44720        4.24210
C         -3.13100       -1.26210        2.84500
C         -2.11530       -0.55650        2.17690
C         -1.07250        0.15650        2.92380
C         -1.39880        1.03540        3.95660
C         -0.41550        1.71050        4.64350
C          0.93790        1.53140        4.35130
S          2.05930        2.50500        5.30170
C          3.69800        1.69480        5.13340
C          4.61190        2.20270        6.23050
C          1.24820        0.64020        3.32930
F          2.53260        0.37990        2.99060
C          0.27020       -0.03120        2.62230
C         -2.15410       -0.57270        0.79060
C         -3.17980       -1.21630        0.06320
C         -4.21100       -1.89600        0.72530
C         -5.30500       -2.51940       -0.02860
C         -6.00800       -1.78440       -0.98310
C         -7.02120       -2.37000       -1.71390
C         -7.36480       -3.70260       -1.51850
S         -8.66770       -4.41530       -2.49580
C         -7.76000       -5.79050       -3.29650
C         -6.65620       -5.27540       -4.19940
C         -6.68120       -4.41300       -0.53870
C         -5.65940       -3.84530        0.19500
F         -6.99780       -5.70410       -0.29210
C         -4.14480       -1.92340        2.10860
S         -5.29250       -2.70580        3.16480
C         -2.99050       -1.10940       -1.33830
C         -1.89380       -0.38760       -1.67770
S         -1.01370        0.19630       -0.28290
N         -1.34810       -0.16530       -2.92480
C         -0.12850        0.45690       -3.05370
O          0.40580        1.09080       -2.16990
C          0.43290        0.13170       -4.42260
C         -0.70290       -0.59260       -5.07450
C         -1.75630       -0.70230       -4.16210
C         -2.97260       -1.22770       -4.54770
C         -3.11120       -1.72050       -5.84260
C         -2.03660       -1.67140       -6.71940
C         -0.83060       -1.09680       -6.35000
C         -4.41200       -2.33220       -6.26700
C          0.99310        1.32550       -5.21790
C          2.12080        0.79390       -6.09340
O          3.13490        0.24420       -5.73450
N          1.78270        1.04720       -7.39880
C          0.54900        1.69460       -7.50350
C          0.04160        1.90570       -6.21760
C         -1.18080        2.51660       -6.05790
C         -1.87410        2.91750       -7.19350
C         -1.36590        2.71480       -8.46970
C         -2.12800        3.15290       -9.68250
C         -0.12720        2.09460       -8.63280
N          2.49730        0.49160       -8.43810
C          2.04070       -0.55900       -9.21340
O          0.88460       -0.83530       -9.39750
C          3.27560       -1.24870       -9.80500
C          4.40120       -0.36960       -9.34560
C          3.88550        0.62530       -8.51480
C          4.68300        1.59590       -7.94650
C          6.04920        1.56180       -8.21050
C          6.56610        0.56520       -9.03010
C          5.75400       -0.40050       -9.60770
C          6.94830        2.62420       -7.65770
C          3.34520       -2.68700       -9.21710
C          3.12980       -2.58470       -7.71150
O          2.12600       -2.23830       -7.13980
N          4.31350       -2.92230       -7.08920
C          5.26710       -3.32710       -8.02160
C          4.71410       -3.28270       -9.30600
C          5.45540       -3.71210      -10.38320
C          6.74890       -4.16990      -10.16180
C          7.30680       -4.19130       -8.88950
C          8.70220       -4.69030       -8.67270
C          6.55250       -3.76860       -7.79600
C          4.49000       -2.58320       -5.75640
C          3.57140       -2.79290       -4.78430
C          3.77370       -1.97640       -3.63710
C          2.93870       -1.82180       -2.51720
C          1.70070       -2.57900       -2.27370
C          1.35830       -2.92170       -0.96080
C          0.14450       -3.49690       -0.66000
C         -0.78940       -3.78400       -1.65450
S         -2.34760       -4.43340       -1.13860
C         -2.86110       -5.52370       -2.52740
C         -3.78730       -6.59810       -1.99350
C         -0.42370       -3.48730       -2.96230
F         -1.26570       -3.74830       -3.99010
C          0.78910       -2.90530       -3.27630
C          3.28450       -0.79360       -1.63880
C          4.44030        0.00910       -1.78320
C          5.33240       -0.23110       -2.84120
C          6.58170        0.53080       -2.94500
C          6.97220        1.16330       -4.12310
C          8.16320        1.85590       -4.18110
C          9.00510        1.95120       -3.07610
S         10.48860        2.90250       -3.25750
C         11.75520        1.88820       -2.40950
C         11.86380        0.50120       -3.01010
C          8.58890        1.33980       -1.89800
C          7.40720        0.63180       -1.82770
F          9.33690        1.42060       -0.77440
C          4.94040       -1.17830       -3.77280
S          5.75910       -1.47600       -5.28480
C          4.44630        1.11050       -0.88410
C          3.32640        1.17580       -0.11480
S          2.28040       -0.19800       -0.35350
C          2.84450        2.22760        0.72730
C          1.53110        2.54560        0.87790
C          1.30300        3.66100        1.72220
C          0.06930        4.22600        2.08400
C         -1.18640        3.73280        1.50680
C         -2.28550        3.46290        2.31590
C         -3.44490        2.92090        1.79700
C         -3.55990        2.65490        0.43940
S         -4.95710        1.91040       -0.33750
C         -6.27390        1.98830        0.92710
C         -6.26460        0.80350        1.87510
C         -2.47540        2.98940       -0.37220
F         -2.57090        2.78850       -1.70510
C         -1.30670        3.51050        0.13520
C          0.11610        5.25830        3.01130
C          1.32190        5.74430        3.57030
C          2.55300        5.18320        3.19960
C          3.81140        5.61780        3.81520
C          4.92820        5.92850        3.04670
C          6.11780        6.31370        3.63490
C          6.23270        6.40270        5.01700
S          7.68870        6.85360        5.90190
C          8.79170        7.55170        4.62590
C          8.31550        8.90370        4.12950
C          5.10710        6.07630        5.77590
C          3.91590        5.69210        5.20360
F          5.18840        6.12900        7.12280
C          2.51290        4.16480        2.25870
S          3.89490        3.28930        1.63880
C          1.08890        6.84550        4.44830
C         -0.21500        7.16770        4.55430
S         -1.25480        6.16220        3.60380
H         -7.48730       -4.83640       13.10580
H         -5.45670       -3.30260       12.54270
H         -3.22930       -3.84050       11.55470
H         -1.36890       -2.65360       12.64200
H         -0.33930        2.09860       11.42060
H          0.10070        0.76470       10.32350
H          2.28500        0.51890       11.50280
H          2.09910        2.16760       10.88810
H          1.84810        1.82690       12.60440
H         -4.27800       -0.22860        9.50570
H         -7.72630       -6.87830        8.52260
H         -9.43970       -8.06490        7.22160
H        -10.17590       -6.26570        3.31370
H        -11.86200       -5.72190        3.50850
H        -11.63380       -7.21030        1.51400
H        -10.98690       -8.49500        2.54330
H        -12.65930       -7.96470        2.74170
H         -8.69070       -3.27060        6.42430
H         -6.50530       -3.81580        5.48170
H         -2.60940       -1.06550        4.97940
H         -2.43440        1.19930        4.21060
H         -0.67430        2.39760        5.43480
H          3.54000        0.62170        5.22360
H          4.09760        1.93260        4.14850
H          5.57840        1.70920        6.15550
H          4.18810        1.99520        7.21040
H          4.76330        3.27500        6.13890
H          0.57640       -0.71190        1.84390
H         -5.75840       -0.74620       -1.14550
H         -7.56230       -1.80250       -2.45540
H         -7.37800       -6.45120       -2.52060
H         -8.52400       -6.31750       -3.86680
H         -6.15590       -6.11030       -4.68660
H         -7.06680       -4.61980       -4.96440
H         -5.91960       -4.71610       -3.62490
H         -5.13720       -4.44540        0.92310
H         -3.63930       -1.60430       -2.03000
H          1.29200       -0.52590       -4.23350
H         -3.82380       -1.24840       -3.88940
H         -2.14130       -2.07270       -7.71530
H         -0.01290       -1.07140       -7.04980
H         -5.24040       -1.92760       -5.69110
H         -4.38170       -3.41020       -6.10720
H         -4.59480       -2.15560       -7.32360
H          1.38060        2.05890       -4.50280
H         -1.59560        2.67580       -5.07410
H         -2.83620        3.39380       -7.07900
H         -1.58270        3.93580      -10.20900
H         -3.10750        3.53650       -9.41100
H         -2.25540        2.31770      -10.36880
H          0.27360        1.91750       -9.61840
H          3.20510       -1.31390      -10.89330
H          4.26250        2.36330       -7.31460
H          7.62670        0.54750       -9.23040
H          6.17980       -1.15410      -10.25110
H          7.94370        2.22750       -7.47420
H          7.04010        3.43870       -8.37730
H          6.54790        3.03550       -6.73470
H          2.55640       -3.28960       -9.67340
H          5.04490       -3.69140      -11.38160
H          7.33690       -4.51190      -11.00040
H          8.67670       -5.69120       -8.24170
H          9.25110       -4.73690       -9.60940
H          9.23640       -4.04350       -7.98010
H          6.96680       -3.78700       -6.79990
H          2.75880       -3.48160       -4.90910
H          2.06590       -2.75330       -0.16450
H         -0.10810       -3.73470        0.36170
H         -3.35300       -4.90940       -3.28100
H         -1.95690       -5.96080       -2.94690
H         -4.10380       -7.24860       -2.80600
H         -4.66800       -6.15430       -1.53780
H         -3.28050       -7.19870       -1.24170
H          0.96560       -2.68230       -4.31600
H          6.33160        1.11980       -4.98980
H          8.46920        2.34670       -5.09120
H         12.67360        2.45580       -2.55940
H         11.52850        1.85530       -1.34620
H         12.07430        0.56200       -4.07590
H         12.66890       -0.04660       -2.52450
H         10.93760       -0.05400       -2.87230
H          7.13840        0.15890       -0.89560
H          5.20580        1.87210       -0.88020
H          0.75230        1.99560        0.38520
H         -2.22490        3.65010        3.37560
H         -4.25860        2.70070        2.46810
H         -7.19670        2.00480        0.34700
H         -6.17290        2.93980        1.44730
H         -6.46420       -0.11750        1.33280
H         -5.30220        0.70140        2.37180
H         -7.03650        0.93210        2.63180
H         -0.50310        3.74390       -0.54470
H          4.86560        5.88350        1.97040
H          6.95960        6.53770        3.00050
H          8.89960        6.82490        3.82200
H          9.74840        7.64320        5.14030
H          9.01740        9.29770        3.39690
H          7.33460        8.82710        3.66520
H          8.24760        9.60420        4.95850
H          3.08430        5.42380        5.83660
H          1.87510        7.37630        4.95340
H         -0.65690        7.94860        5.14180
