
  xtb     03042219553D
 energy: -469.953821100653 gnorm: 0.000803251335 xtb: 6.4.1 (unknown)
274301  0     0  0            999 V2000
   -7.1414   -4.5585   12.1293 C   0  0  0  0  0  0  0  0  0  0  0  0
   -6.0904   -3.7753   11.8145 C   0  0  0  0  0  0  0  0  0  0  0  0
   -5.9200   -3.6145   10.4069 C   0  0  0  0  0  0  0  0  0  0  0  0
   -4.9628   -2.8430    9.7326 C   0  0  0  0  0  0  0  0  0  0  0  0
   -3.8883   -2.1333   10.4379 C   0  0  0  0  0  0  0  0  0  0  0  0
   -3.0654   -2.7935   11.3492 C   0  0  0  0  0  0  0  0  0  0  0  0
   -2.0165   -2.1343   11.9528 C   0  0  0  0  0  0  0  0  0  0  0  0
   -1.7525   -0.7909   11.6865 C   0  0  0  0  0  0  0  0  0  0  0  0
   -0.3885   -0.0485   12.5250 S   0  0  0  0  0  0  0  0  0  0  0  0
    0.2446    1.1852   11.3175 C   0  0  0  0  0  0  0  0  0  0  0  0
    1.7126    1.4390   11.5975 C   0  0  0  0  0  0  0  0  0  0  0  0
   -2.6082   -0.1342   10.8071 C   0  0  0  0  0  0  0  0  0  0  0  0
   -2.4561    1.1833   10.5434 F   0  0  0  0  0  0  0  0  0  0  0  0
   -3.6467   -0.7889   10.1774 C   0  0  0  0  0  0  0  0  0  0  0  0
   -5.0610   -2.7997    8.3499 C   0  0  0  0  0  0  0  0  0  0  0  0
   -6.0505   -3.5007    7.6186 C   0  0  0  0  0  0  0  0  0  0  0  0
   -7.0081   -4.2744    8.2935 C   0  0  0  0  0  0  0  0  0  0  0  0
   -8.0545   -4.9920    7.5566 C   0  0  0  0  0  0  0  0  0  0  0  0
   -8.3068   -6.3433    7.7871 C   0  0  0  0  0  0  0  0  0  0  0  0
   -9.2619   -7.0141    7.0546 C   0  0  0  0  0  0  0  0  0  0  0  0
  -10.0149   -6.3663    6.0760 C   0  0  0  0  0  0  0  0  0  0  0  0
  -11.2143   -7.3198    5.2008 S   0  0  0  0  0  0  0  0  0  0  0  0
  -11.1974   -6.5845    3.5149 C   0  0  0  0  0  0  0  0  0  0  0  0
  -11.6485   -7.6320    2.5166 C   0  0  0  0  0  0  0  0  0  0  0  0
   -9.7876   -5.0053    5.8921 C   0  0  0  0  0  0  0  0  0  0  0  0
   -8.8180   -4.3274    6.6015 C   0  0  0  0  0  0  0  0  0  0  0  0
  -10.5228   -4.2917    5.0092 F   0  0  0  0  0  0  0  0  0  0  0  0
   -6.9110   -4.3151    9.6778 C   0  0  0  0  0  0  0  0  0  0  0  0
   -7.9993   -5.1581   10.7506 S   0  0  0  0  0  0  0  0  0  0  0  0
   -5.8820   -3.3415    6.2183 C   0  0  0  0  0  0  0  0  0  0  0  0
   -4.8269   -2.5500    5.8809 C   0  0  0  0  0  0  0  0  0  0  0  0
   -3.9689   -1.9490    7.2875 S   0  0  0  0  0  0  0  0  0  0  0  0
   -4.3882   -2.1854    4.5747 C   0  0  0  0  0  0  0  0  0  0  0  0
   -3.2931   -1.4472    4.2421 C   0  0  0  0  0  0  0  0  0  0  0  0
   -3.1310   -1.2621    2.8450 C   0  0  0  0  0  0  0  0  0  0  0  0
   -2.1153   -0.5565    2.1769 C   0  0  0  0  0  0  0  0  0  0  0  0
   -1.0725    0.1565    2.9238 C   0  0  0  0  0  0  0  0  0  0  0  0
   -1.3988    1.0354    3.9566 C   0  0  0  0  0  0  0  0  0  0  0  0
   -0.4155    1.7105    4.6435 C   0  0  0  0  0  0  0  0  0  0  0  0
    0.9379    1.5314    4.3513 C   0  0  0  0  0  0  0  0  0  0  0  0
    2.0593    2.5050    5.3017 S   0  0  0  0  0  0  0  0  0  0  0  0
    3.6980    1.6948    5.1334 C   0  0  0  0  0  0  0  0  0  0  0  0
    4.6119    2.2027    6.2305 C   0  0  0  0  0  0  0  0  0  0  0  0
    1.2482    0.6402    3.3293 C   0  0  0  0  0  0  0  0  0  0  0  0
    2.5326    0.3799    2.9906 F   0  0  0  0  0  0  0  0  0  0  0  0
    0.2702   -0.0312    2.6223 C   0  0  0  0  0  0  0  0  0  0  0  0
   -2.1541   -0.5727    0.7906 C   0  0  0  0  0  0  0  0  0  0  0  0
   -3.1798   -1.2163    0.0632 C   0  0  0  0  0  0  0  0  0  0  0  0
   -4.2110   -1.8960    0.7253 C   0  0  0  0  0  0  0  0  0  0  0  0
   -5.3050   -2.5194   -0.0286 C   0  0  0  0  0  0  0  0  0  0  0  0
   -6.0080   -1.7844   -0.9831 C   0  0  0  0  0  0  0  0  0  0  0  0
   -7.0212   -2.3700   -1.7139 C   0  0  0  0  0  0  0  0  0  0  0  0
   -7.3648   -3.7026   -1.5185 C   0  0  0  0  0  0  0  0  0  0  0  0
   -8.6677   -4.4153   -2.4958 S   0  0  0  0  0  0  0  0  0  0  0  0
   -7.7600   -5.7905   -3.2965 C   0  0  0  0  0  0  0  0  0  0  0  0
   -6.6562   -5.2754   -4.1994 C   0  0  0  0  0  0  0  0  0  0  0  0
   -6.6812   -4.4130   -0.5387 C   0  0  0  0  0  0  0  0  0  0  0  0
   -5.6594   -3.8453    0.1950 C   0  0  0  0  0  0  0  0  0  0  0  0
   -6.9978   -5.7041   -0.2921 F   0  0  0  0  0  0  0  0  0  0  0  0
   -4.1448   -1.9234    2.1086 C   0  0  0  0  0  0  0  0  0  0  0  0
   -5.2925   -2.7058    3.1648 S   0  0  0  0  0  0  0  0  0  0  0  0
   -2.9905   -1.1094   -1.3383 C   0  0  0  0  0  0  0  0  0  0  0  0
   -1.8938   -0.3876   -1.6777 C   0  0  0  0  0  0  0  0  0  0  0  0
   -1.0137    0.1963   -0.2829 S   0  0  0  0  0  0  0  0  0  0  0  0
   -1.3481   -0.1653   -2.9248 N   0  0  0  0  0  0  0  0  0  0  0  0
   -0.1285    0.4569   -3.0537 C   0  0  0  0  0  0  0  0  0  0  0  0
    0.4058    1.0908   -2.1699 O   0  0  0  0  0  0  0  0  0  0  0  0
    0.4329    0.1317   -4.4226 C   0  0  0  0  0  0  0  0  0  0  0  0
   -0.7029   -0.5926   -5.0745 C   0  0  0  0  0  0  0  0  0  0  0  0
   -1.7563   -0.7023   -4.1621 C   0  0  0  0  0  0  0  0  0  0  0  0
   -2.9726   -1.2277   -4.5477 C   0  0  0  0  0  0  0  0  0  0  0  0
   -3.1112   -1.7205   -5.8426 C   0  0  0  0  0  0  0  0  0  0  0  0
   -2.0366   -1.6714   -6.7194 C   0  0  0  0  0  0  0  0  0  0  0  0
   -0.8306   -1.0968   -6.3500 C   0  0  0  0  0  0  0  0  0  0  0  0
   -4.4120   -2.3322   -6.2670 C   0  0  0  0  0  0  0  0  0  0  0  0
    0.9931    1.3255   -5.2179 C   0  0  0  0  0  0  0  0  0  0  0  0
    2.1208    0.7939   -6.0934 C   0  0  0  0  0  0  0  0  0  0  0  0
    3.1349    0.2442   -5.7345 O   0  0  0  0  0  0  0  0  0  0  0  0
    1.7827    1.0472   -7.3988 N   0  0  0  0  0  0  0  0  0  0  0  0
    0.5490    1.6946   -7.5035 C   0  0  0  0  0  0  0  0  0  0  0  0
    0.0416    1.9057   -6.2176 C   0  0  0  0  0  0  0  0  0  0  0  0
   -1.1808    2.5166   -6.0579 C   0  0  0  0  0  0  0  0  0  0  0  0
   -1.8741    2.9175   -7.1935 C   0  0  0  0  0  0  0  0  0  0  0  0
   -1.3659    2.7148   -8.4697 C   0  0  0  0  0  0  0  0  0  0  0  0
   -2.1280    3.1529   -9.6825 C   0  0  0  0  0  0  0  0  0  0  0  0
   -0.1272    2.0946   -8.6328 C   0  0  0  0  0  0  0  0  0  0  0  0
    2.4973    0.4916   -8.4381 N   0  0  0  0  0  0  0  0  0  0  0  0
    2.0407   -0.5590   -9.2134 C   0  0  0  0  0  0  0  0  0  0  0  0
    0.8846   -0.8353   -9.3975 O   0  0  0  0  0  0  0  0  0  0  0  0
    3.2756   -1.2487   -9.8050 C   0  0  0  0  0  0  0  0  0  0  0  0
    4.4012   -0.3696   -9.3456 C   0  0  0  0  0  0  0  0  0  0  0  0
    3.8855    0.6253   -8.5148 C   0  0  0  0  0  0  0  0  0  0  0  0
    4.6830    1.5959   -7.9465 C   0  0  0  0  0  0  0  0  0  0  0  0
    6.0492    1.5618   -8.2105 C   0  0  0  0  0  0  0  0  0  0  0  0
    6.5661    0.5652   -9.0301 C   0  0  0  0  0  0  0  0  0  0  0  0
    5.7540   -0.4005   -9.6077 C   0  0  0  0  0  0  0  0  0  0  0  0
    6.9483    2.6242   -7.6577 C   0  0  0  0  0  0  0  0  0  0  0  0
    3.3452   -2.6870   -9.2171 C   0  0  0  0  0  0  0  0  0  0  0  0
    3.1298   -2.5847   -7.7115 C   0  0  0  0  0  0  0  0  0  0  0  0
    2.1260   -2.2383   -7.1398 O   0  0  0  0  0  0  0  0  0  0  0  0
    4.3135   -2.9223   -7.0892 N   0  0  0  0  0  0  0  0  0  0  0  0
    5.2671   -3.3271   -8.0216 C   0  0  0  0  0  0  0  0  0  0  0  0
    4.7141   -3.2827   -9.3060 C   0  0  0  0  0  0  0  0  0  0  0  0
    5.4554   -3.7121  -10.3832 C   0  0  0  0  0  0  0  0  0  0  0  0
    6.7489   -4.1699  -10.1618 C   0  0  0  0  0  0  0  0  0  0  0  0
    7.3068   -4.1913   -8.8895 C   0  0  0  0  0  0  0  0  0  0  0  0
    8.7022   -4.6903   -8.6727 C   0  0  0  0  0  0  0  0  0  0  0  0
    6.5525   -3.7686   -7.7960 C   0  0  0  0  0  0  0  0  0  0  0  0
    4.4900   -2.5832   -5.7564 C   0  0  0  0  0  0  0  0  0  0  0  0
    3.5714   -2.7929   -4.7843 C   0  0  0  0  0  0  0  0  0  0  0  0
    3.7737   -1.9764   -3.6371 C   0  0  0  0  0  0  0  0  0  0  0  0
    2.9387   -1.8218   -2.5172 C   0  0  0  0  0  0  0  0  0  0  0  0
    1.7007   -2.5790   -2.2737 C   0  0  0  0  0  0  0  0  0  0  0  0
    1.3583   -2.9217   -0.9608 C   0  0  0  0  0  0  0  0  0  0  0  0
    0.1445   -3.4969   -0.6600 C   0  0  0  0  0  0  0  0  0  0  0  0
   -0.7894   -3.7840   -1.6545 C   0  0  0  0  0  0  0  0  0  0  0  0
   -2.3476   -4.4334   -1.1386 S   0  0  0  0  0  0  0  0  0  0  0  0
   -2.8611   -5.5237   -2.5274 C   0  0  0  0  0  0  0  0  0  0  0  0
   -3.7873   -6.5981   -1.9935 C   0  0  0  0  0  0  0  0  0  0  0  0
   -0.4237   -3.4873   -2.9623 C   0  0  0  0  0  0  0  0  0  0  0  0
   -1.2657   -3.7483   -3.9901 F   0  0  0  0  0  0  0  0  0  0  0  0
    0.7891   -2.9053   -3.2763 C   0  0  0  0  0  0  0  0  0  0  0  0
    3.2845   -0.7936   -1.6388 C   0  0  0  0  0  0  0  0  0  0  0  0
    4.4403    0.0091   -1.7832 C   0  0  0  0  0  0  0  0  0  0  0  0
    5.3324   -0.2311   -2.8412 C   0  0  0  0  0  0  0  0  0  0  0  0
    6.5817    0.5308   -2.9450 C   0  0  0  0  0  0  0  0  0  0  0  0
    6.9722    1.1633   -4.1231 C   0  0  0  0  0  0  0  0  0  0  0  0
    8.1632    1.8559   -4.1811 C   0  0  0  0  0  0  0  0  0  0  0  0
    9.0051    1.9512   -3.0761 C   0  0  0  0  0  0  0  0  0  0  0  0
   10.4886    2.9025   -3.2575 S   0  0  0  0  0  0  0  0  0  0  0  0
   11.7552    1.8882   -2.4095 C   0  0  0  0  0  0  0  0  0  0  0  0
   11.8638    0.5012   -3.0101 C   0  0  0  0  0  0  0  0  0  0  0  0
    8.5889    1.3398   -1.8980 C   0  0  0  0  0  0  0  0  0  0  0  0
    7.4072    0.6318   -1.8277 C   0  0  0  0  0  0  0  0  0  0  0  0
    9.3369    1.4206   -0.7744 F   0  0  0  0  0  0  0  0  0  0  0  0
    4.9404   -1.1783   -3.7728 C   0  0  0  0  0  0  0  0  0  0  0  0
    5.7591   -1.4760   -5.2848 S   0  0  0  0  0  0  0  0  0  0  0  0
    4.4463    1.1105   -0.8841 C   0  0  0  0  0  0  0  0  0  0  0  0
    3.3264    1.1758   -0.1148 C   0  0  0  0  0  0  0  0  0  0  0  0
    2.2804   -0.1980   -0.3535 S   0  0  0  0  0  0  0  0  0  0  0  0
    2.8445    2.2276    0.7273 C   0  0  0  0  0  0  0  0  0  0  0  0
    1.5311    2.5456    0.8779 C   0  0  0  0  0  0  0  0  0  0  0  0
    1.3030    3.6610    1.7222 C   0  0  0  0  0  0  0  0  0  0  0  0
    0.0693    4.2260    2.0840 C   0  0  0  0  0  0  0  0  0  0  0  0
   -1.1864    3.7328    1.5068 C   0  0  0  0  0  0  0  0  0  0  0  0
   -2.2855    3.4629    2.3159 C   0  0  0  0  0  0  0  0  0  0  0  0
   -3.4449    2.9209    1.7970 C   0  0  0  0  0  0  0  0  0  0  0  0
   -3.5599    2.6549    0.4394 C   0  0  0  0  0  0  0  0  0  0  0  0
   -4.9571    1.9104   -0.3375 S   0  0  0  0  0  0  0  0  0  0  0  0
   -6.2739    1.9883    0.9271 C   0  0  0  0  0  0  0  0  0  0  0  0
   -6.2646    0.8035    1.8751 C   0  0  0  0  0  0  0  0  0  0  0  0
   -2.4754    2.9894   -0.3722 C   0  0  0  0  0  0  0  0  0  0  0  0
   -2.5709    2.7885   -1.7051 F   0  0  0  0  0  0  0  0  0  0  0  0
   -1.3067    3.5105    0.1352 C   0  0  0  0  0  0  0  0  0  0  0  0
    0.1161    5.2583    3.0113 C   0  0  0  0  0  0  0  0  0  0  0  0
    1.3219    5.7443    3.5703 C   0  0  0  0  0  0  0  0  0  0  0  0
    2.5530    5.1832    3.1996 C   0  0  0  0  0  0  0  0  0  0  0  0
    3.8114    5.6178    3.8152 C   0  0  0  0  0  0  0  0  0  0  0  0
    4.9282    5.9285    3.0467 C   0  0  0  0  0  0  0  0  0  0  0  0
    6.1178    6.3137    3.6349 C   0  0  0  0  0  0  0  0  0  0  0  0
    6.2327    6.4027    5.0170 C   0  0  0  0  0  0  0  0  0  0  0  0
    7.6887    6.8536    5.9019 S   0  0  0  0  0  0  0  0  0  0  0  0
    8.7917    7.5517    4.6259 C   0  0  0  0  0  0  0  0  0  0  0  0
    8.3155    8.9037    4.1295 C   0  0  0  0  0  0  0  0  0  0  0  0
    5.1071    6.0763    5.7759 C   0  0  0  0  0  0  0  0  0  0  0  0
    3.9159    5.6921    5.2036 C   0  0  0  0  0  0  0  0  0  0  0  0
    5.1884    6.1290    7.1228 F   0  0  0  0  0  0  0  0  0  0  0  0
    2.5129    4.1648    2.2587 C   0  0  0  0  0  0  0  0  0  0  0  0
    3.8949    3.2893    1.6388 S   0  0  0  0  0  0  0  0  0  0  0  0
    1.0889    6.8455    4.4483 C   0  0  0  0  0  0  0  0  0  0  0  0
   -0.2150    7.1677    4.5543 C   0  0  0  0  0  0  0  0  0  0  0  0
   -1.2548    6.1622    3.6038 S   0  0  0  0  0  0  0  0  0  0  0  0
   -7.4873   -4.8364   13.1058 H   0  0  0  0  0  0  0  0  0  0  0  0
   -5.4567   -3.3026   12.5427 H   0  0  0  0  0  0  0  0  0  0  0  0
   -3.2293   -3.8405   11.5547 H   0  0  0  0  0  0  0  0  0  0  0  0
   -1.3689   -2.6536   12.6420 H   0  0  0  0  0  0  0  0  0  0  0  0
   -0.3393    2.0986   11.4206 H   0  0  0  0  0  0  0  0  0  0  0  0
    0.1007    0.7647   10.3235 H   0  0  0  0  0  0  0  0  0  0  0  0
    2.2850    0.5189   11.5028 H   0  0  0  0  0  0  0  0  0  0  0  0
    2.0991    2.1676   10.8881 H   0  0  0  0  0  0  0  0  0  0  0  0
    1.8481    1.8269   12.6044 H   0  0  0  0  0  0  0  0  0  0  0  0
   -4.2780   -0.2286    9.5057 H   0  0  0  0  0  0  0  0  0  0  0  0
   -7.7263   -6.8783    8.5226 H   0  0  0  0  0  0  0  0  0  0  0  0
   -9.4397   -8.0649    7.2216 H   0  0  0  0  0  0  0  0  0  0  0  0
  -10.1759   -6.2657    3.3137 H   0  0  0  0  0  0  0  0  0  0  0  0
  -11.8620   -5.7219    3.5085 H   0  0  0  0  0  0  0  0  0  0  0  0
  -11.6338   -7.2103    1.5140 H   0  0  0  0  0  0  0  0  0  0  0  0
  -10.9869   -8.4950    2.5433 H   0  0  0  0  0  0  0  0  0  0  0  0
  -12.6593   -7.9647    2.7417 H   0  0  0  0  0  0  0  0  0  0  0  0
   -8.6907   -3.2706    6.4243 H   0  0  0  0  0  0  0  0  0  0  0  0
   -6.5053   -3.8158    5.4817 H   0  0  0  0  0  0  0  0  0  0  0  0
   -2.6094   -1.0655    4.9794 H   0  0  0  0  0  0  0  0  0  0  0  0
   -2.4344    1.1993    4.2106 H   0  0  0  0  0  0  0  0  0  0  0  0
   -0.6743    2.3976    5.4348 H   0  0  0  0  0  0  0  0  0  0  0  0
    3.5400    0.6217    5.2236 H   0  0  0  0  0  0  0  0  0  0  0  0
    4.0976    1.9326    4.1485 H   0  0  0  0  0  0  0  0  0  0  0  0
    5.5784    1.7092    6.1555 H   0  0  0  0  0  0  0  0  0  0  0  0
    4.1881    1.9952    7.2104 H   0  0  0  0  0  0  0  0  0  0  0  0
    4.7633    3.2750    6.1389 H   0  0  0  0  0  0  0  0  0  0  0  0
    0.5764   -0.7119    1.8439 H   0  0  0  0  0  0  0  0  0  0  0  0
   -5.7584   -0.7462   -1.1455 H   0  0  0  0  0  0  0  0  0  0  0  0
   -7.5623   -1.8025   -2.4554 H   0  0  0  0  0  0  0  0  0  0  0  0
   -7.3780   -6.4512   -2.5206 H   0  0  0  0  0  0  0  0  0  0  0  0
   -8.5240   -6.3175   -3.8668 H   0  0  0  0  0  0  0  0  0  0  0  0
   -6.1559   -6.1103   -4.6866 H   0  0  0  0  0  0  0  0  0  0  0  0
   -7.0668   -4.6198   -4.9644 H   0  0  0  0  0  0  0  0  0  0  0  0
   -5.9196   -4.7161   -3.6249 H   0  0  0  0  0  0  0  0  0  0  0  0
   -5.1372   -4.4454    0.9231 H   0  0  0  0  0  0  0  0  0  0  0  0
   -3.6393   -1.6043   -2.0300 H   0  0  0  0  0  0  0  0  0  0  0  0
    1.2920   -0.5259   -4.2335 H   0  0  0  0  0  0  0  0  0  0  0  0
   -3.8238   -1.2484   -3.8894 H   0  0  0  0  0  0  0  0  0  0  0  0
   -2.1413   -2.0727   -7.7153 H   0  0  0  0  0  0  0  0  0  0  0  0
   -0.0129   -1.0714   -7.0498 H   0  0  0  0  0  0  0  0  0  0  0  0
   -5.2404   -1.9276   -5.6911 H   0  0  0  0  0  0  0  0  0  0  0  0
   -4.3817   -3.4102   -6.1072 H   0  0  0  0  0  0  0  0  0  0  0  0
   -4.5948   -2.1556   -7.3236 H   0  0  0  0  0  0  0  0  0  0  0  0
    1.3806    2.0589   -4.5028 H   0  0  0  0  0  0  0  0  0  0  0  0
   -1.5956    2.6758   -5.0741 H   0  0  0  0  0  0  0  0  0  0  0  0
   -2.8362    3.3938   -7.0790 H   0  0  0  0  0  0  0  0  0  0  0  0
   -1.5827    3.9358  -10.2090 H   0  0  0  0  0  0  0  0  0  0  0  0
   -3.1075    3.5365   -9.4110 H   0  0  0  0  0  0  0  0  0  0  0  0
   -2.2554    2.3177  -10.3688 H   0  0  0  0  0  0  0  0  0  0  0  0
    0.2736    1.9175   -9.6184 H   0  0  0  0  0  0  0  0  0  0  0  0
    3.2051   -1.3139  -10.8933 H   0  0  0  0  0  0  0  0  0  0  0  0
    4.2625    2.3633   -7.3146 H   0  0  0  0  0  0  0  0  0  0  0  0
    7.6267    0.5475   -9.2304 H   0  0  0  0  0  0  0  0  0  0  0  0
    6.1798   -1.1541  -10.2511 H   0  0  0  0  0  0  0  0  0  0  0  0
    7.9437    2.2275   -7.4742 H   0  0  0  0  0  0  0  0  0  0  0  0
    7.0401    3.4387   -8.3773 H   0  0  0  0  0  0  0  0  0  0  0  0
    6.5479    3.0355   -6.7347 H   0  0  0  0  0  0  0  0  0  0  0  0
    2.5564   -3.2896   -9.6734 H   0  0  0  0  0  0  0  0  0  0  0  0
    5.0449   -3.6914  -11.3816 H   0  0  0  0  0  0  0  0  0  0  0  0
    7.3369   -4.5119  -11.0004 H   0  0  0  0  0  0  0  0  0  0  0  0
    8.6767   -5.6912   -8.2417 H   0  0  0  0  0  0  0  0  0  0  0  0
    9.2511   -4.7369   -9.6094 H   0  0  0  0  0  0  0  0  0  0  0  0
    9.2364   -4.0435   -7.9801 H   0  0  0  0  0  0  0  0  0  0  0  0
    6.9668   -3.7870   -6.7999 H   0  0  0  0  0  0  0  0  0  0  0  0
    2.7588   -3.4816   -4.9091 H   0  0  0  0  0  0  0  0  0  0  0  0
    2.0659   -2.7533   -0.1645 H   0  0  0  0  0  0  0  0  0  0  0  0
   -0.1081   -3.7347    0.3617 H   0  0  0  0  0  0  0  0  0  0  0  0
   -3.3530   -4.9094   -3.2810 H   0  0  0  0  0  0  0  0  0  0  0  0
   -1.9569   -5.9608   -2.9469 H   0  0  0  0  0  0  0  0  0  0  0  0
   -4.1038   -7.2486   -2.8060 H   0  0  0  0  0  0  0  0  0  0  0  0
   -4.6680   -6.1543   -1.5378 H   0  0  0  0  0  0  0  0  0  0  0  0
   -3.2805   -7.1987   -1.2417 H   0  0  0  0  0  0  0  0  0  0  0  0
    0.9656   -2.6823   -4.3160 H   0  0  0  0  0  0  0  0  0  0  0  0
    6.3316    1.1198   -4.9898 H   0  0  0  0  0  0  0  0  0  0  0  0
    8.4692    2.3467   -5.0912 H   0  0  0  0  0  0  0  0  0  0  0  0
   12.6736    2.4558   -2.5594 H   0  0  0  0  0  0  0  0  0  0  0  0
   11.5285    1.8553   -1.3462 H   0  0  0  0  0  0  0  0  0  0  0  0
   12.0743    0.5620   -4.0759 H   0  0  0  0  0  0  0  0  0  0  0  0
   12.6689   -0.0466   -2.5245 H   0  0  0  0  0  0  0  0  0  0  0  0
   10.9376   -0.0540   -2.8723 H   0  0  0  0  0  0  0  0  0  0  0  0
    7.1384    0.1589   -0.8956 H   0  0  0  0  0  0  0  0  0  0  0  0
    5.2058    1.8721   -0.8802 H   0  0  0  0  0  0  0  0  0  0  0  0
    0.7523    1.9956    0.3852 H   0  0  0  0  0  0  0  0  0  0  0  0
   -2.2249    3.6501    3.3756 H   0  0  0  0  0  0  0  0  0  0  0  0
   -4.2586    2.7007    2.4681 H   0  0  0  0  0  0  0  0  0  0  0  0
   -7.1967    2.0048    0.3470 H   0  0  0  0  0  0  0  0  0  0  0  0
   -6.1729    2.9398    1.4473 H   0  0  0  0  0  0  0  0  0  0  0  0
   -6.4642   -0.1175    1.3328 H   0  0  0  0  0  0  0  0  0  0  0  0
   -5.3022    0.7014    2.3718 H   0  0  0  0  0  0  0  0  0  0  0  0
   -7.0365    0.9321    2.6318 H   0  0  0  0  0  0  0  0  0  0  0  0
   -0.5031    3.7439   -0.5447 H   0  0  0  0  0  0  0  0  0  0  0  0
    4.8656    5.8835    1.9704 H   0  0  0  0  0  0  0  0  0  0  0  0
    6.9596    6.5377    3.0005 H   0  0  0  0  0  0  0  0  0  0  0  0
    8.8996    6.8249    3.8220 H   0  0  0  0  0  0  0  0  0  0  0  0
    9.7484    7.6432    5.1403 H   0  0  0  0  0  0  0  0  0  0  0  0
    9.0174    9.2977    3.3969 H   0  0  0  0  0  0  0  0  0  0  0  0
    7.3346    8.8271    3.6652 H   0  0  0  0  0  0  0  0  0  0  0  0
    8.2476    9.6042    4.9585 H   0  0  0  0  0  0  0  0  0  0  0  0
    3.0843    5.4238    5.8366 H   0  0  0  0  0  0  0  0  0  0  0  0
    1.8751    7.3763    4.9534 H   0  0  0  0  0  0  0  0  0  0  0  0
   -0.6569    7.9486    5.1418 H   0  0  0  0  0  0  0  0  0  0  0  0
  1  2  2  0  0  0  0
  2  3  1  0  0  0  0
  3  4  2  0  0  0  0
  4  5  1  0  0  0  0
  5  6  2  0  0  0  0
  6  7  1  0  0  0  0
  7  8  2  0  0  0  0
  8  9  1  0  0  0  0
  9 10  1  0  0  0  0
 10 11  1  0  0  0  0
  8 12  1  0  0  0  0
 12 13  1  0  0  0  0
 12 14  2  0  0  0  0
  4 15  1  0  0  0  0
 15 16  2  0  0  0  0
 16 17  1  0  0  0  0
 17 18  1  0  0  0  0
 18 19  2  0  0  0  0
 19 20  1  0  0  0  0
 20 21  2  0  0  0  0
 21 22  1  0  0  0  0
 22 23  1  0  0  0  0
 23 24  1  0  0  0  0
 21 25  1  0  0  0  0
 25 26  2  0  0  0  0
 25 27  1  0  0  0  0
 17 28  2  0  0  0  0
 28 29  1  0  0  0  0
 16 30  1  0  0  0  0
 30 31  2  0  0  0  0
 31 32  1  0  0  0  0
 31 33  1  0  0  0  0
 33 34  2  0  0  0  0
 34 35  1  0  0  0  0
 35 36  2  0  0  0  0
 36 37  1  0  0  0  0
 37 38  2  0  0  0  0
 38 39  1  0  0  0  0
 39 40  2  0  0  0  0
 40 41  1  0  0  0  0
 41 42  1  0  0  0  0
 42 43  1  0  0  0  0
 40 44  1  0  0  0  0
 44 45  1  0  0  0  0
 44 46  2  0  0  0  0
 36 47  1  0  0  0  0
 47 48  2  0  0  0  0
 48 49  1  0  0  0  0
 49 50  1  0  0  0  0
 50 51  2  0  0  0  0
 51 52  1  0  0  0  0
 52 53  2  0  0  0  0
 53 54  1  0  0  0  0
 54 55  1  0  0  0  0
 55 56  1  0  0  0  0
 53 57  1  0  0  0  0
 57 58  2  0  0  0  0
 57 59  1  0  0  0  0
 49 60  2  0  0  0  0
 60 61  1  0  0  0  0
 48 62  1  0  0  0  0
 62 63  2  0  0  0  0
 63 64  1  0  0  0  0
 63 65  1  0  0  0  0
 65 66  1  0  0  0  0
 66 67  2  0  0  0  0
 66 68  1  0  0  0  0
 68 69  1  0  0  0  0
 69 70  2  0  0  0  0
 70 71  1  0  0  0  0
 71 72  2  0  0  0  0
 72 73  1  0  0  0  0
 73 74  2  0  0  0  0
 72 75  1  0  0  0  0
 68 76  1  0  0  0  0
 76 77  1  0  0  0  0
 77 78  2  0  0  0  0
 77 79  1  0  0  0  0
 79 80  1  0  0  0  0
 80 81  2  0  0  0  0
 81 82  1  0  0  0  0
 82 83  2  0  0  0  0
 83 84  1  0  0  0  0
 84 85  1  0  0  0  0
 84 86  2  0  0  0  0
 79 87  1  0  0  0  0
 87 88  1  0  0  0  0
 88 89  2  0  0  0  0
 88 90  1  0  0  0  0
 90 91  1  0  0  0  0
 91 92  2  0  0  0  0
 92 93  1  0  0  0  0
 93 94  2  0  0  0  0
 94 95  1  0  0  0  0
 95 96  2  0  0  0  0
 94 97  1  0  0  0  0
 90 98  1  0  0  0  0
 98 99  1  0  0  0  0
 99100  2  0  0  0  0
 99101  1  0  0  0  0
101102  1  0  0  0  0
102103  2  0  0  0  0
103104  1  0  0  0  0
104105  2  0  0  0  0
105106  1  0  0  0  0
106107  1  0  0  0  0
106108  2  0  0  0  0
101109  1  0  0  0  0
109110  2  0  0  0  0
110111  1  0  0  0  0
111112  2  0  0  0  0
112113  1  0  0  0  0
113114  2  0  0  0  0
114115  1  0  0  0  0
115116  2  0  0  0  0
116117  1  0  0  0  0
117118  1  0  0  0  0
118119  1  0  0  0  0
116120  1  0  0  0  0
120121  1  0  0  0  0
120122  2  0  0  0  0
112123  1  0  0  0  0
123124  2  0  0  0  0
124125  1  0  0  0  0
125126  1  0  0  0  0
126127  2  0  0  0  0
127128  1  0  0  0  0
128129  2  0  0  0  0
129130  1  0  0  0  0
130131  1  0  0  0  0
131132  1  0  0  0  0
129133  1  0  0  0  0
133134  2  0  0  0  0
133135  1  0  0  0  0
125136  2  0  0  0  0
136137  1  0  0  0  0
124138  1  0  0  0  0
138139  2  0  0  0  0
139140  1  0  0  0  0
139141  1  0  0  0  0
141142  2  0  0  0  0
142143  1  0  0  0  0
143144  2  0  0  0  0
144145  1  0  0  0  0
145146  2  0  0  0  0
146147  1  0  0  0  0
147148  2  0  0  0  0
148149  1  0  0  0  0
149150  1  0  0  0  0
150151  1  0  0  0  0
148152  1  0  0  0  0
152153  1  0  0  0  0
152154  2  0  0  0  0
144155  1  0  0  0  0
155156  2  0  0  0  0
156157  1  0  0  0  0
157158  1  0  0  0  0
158159  2  0  0  0  0
159160  1  0  0  0  0
160161  2  0  0  0  0
161162  1  0  0  0  0
162163  1  0  0  0  0
163164  1  0  0  0  0
161165  1  0  0  0  0
165166  2  0  0  0  0
165167  1  0  0  0  0
157168  2  0  0  0  0
168169  1  0  0  0  0
156170  1  0  0  0  0
170171  2  0  0  0  0
171172  1  0  0  0  0
 29  1  1  0  0  0  0
 61 33  1  0  0  0  0
 70 65  1  0  0  0  0
 81 76  1  0  0  0  0
 92 87  1  0  0  0  0
103 98  1  0  0  0  0
137109  1  0  0  0  0
169141  1  0  0  0  0
 28  3  1  0  0  0  0
 60 35  1  0  0  0  0
 74 69  1  0  0  0  0
 86 80  1  0  0  0  0
 96 91  1  0  0  0  0
108102  1  0  0  0  0
136111  1  0  0  0  0
168143  1  0  0  0  0
 14  5  1  0  0  0  0
 32 15  1  0  0  0  0
 46 37  1  0  0  0  0
 64 47  1  0  0  0  0
122113  1  0  0  0  0
140123  1  0  0  0  0
154145  1  0  0  0  0
172155  1  0  0  0  0
 26 18  1  0  0  0  0
 58 50  1  0  0  0  0
134126  1  0  0  0  0
166158  1  0  0  0  0
  1173  1  0  0  0  0
  2174  1  0  0  0  0
  6175  1  0  0  0  0
  7176  1  0  0  0  0
 10177  1  0  0  0  0
 10178  1  0  0  0  0
 11179  1  0  0  0  0
 11180  1  0  0  0  0
 11181  1  0  0  0  0
 14182  1  0  0  0  0
 19183  1  0  0  0  0
 20184  1  0  0  0  0
 23185  1  0  0  0  0
 23186  1  0  0  0  0
 24187  1  0  0  0  0
 24188  1  0  0  0  0
 24189  1  0  0  0  0
 26190  1  0  0  0  0
 30191  1  0  0  0  0
 34192  1  0  0  0  0
 38193  1  0  0  0  0
 39194  1  0  0  0  0
 42195  1  0  0  0  0
 42196  1  0  0  0  0
 43197  1  0  0  0  0
 43198  1  0  0  0  0
 43199  1  0  0  0  0
 46200  1  0  0  0  0
 51201  1  0  0  0  0
 52202  1  0  0  0  0
 55203  1  0  0  0  0
 55204  1  0  0  0  0
 56205  1  0  0  0  0
 56206  1  0  0  0  0
 56207  1  0  0  0  0
 58208  1  0  0  0  0
 62209  1  0  0  0  0
 68210  1  0  0  0  0
 71211  1  0  0  0  0
 73212  1  0  0  0  0
 74213  1  0  0  0  0
 75214  1  0  0  0  0
 75215  1  0  0  0  0
 75216  1  0  0  0  0
 76217  1  0  0  0  0
 82218  1  0  0  0  0
 83219  1  0  0  0  0
 85220  1  0  0  0  0
 85221  1  0  0  0  0
 85222  1  0  0  0  0
 86223  1  0  0  0  0
 90224  1  0  0  0  0
 93225  1  0  0  0  0
 95226  1  0  0  0  0
 96227  1  0  0  0  0
 97228  1  0  0  0  0
 97229  1  0  0  0  0
 97230  1  0  0  0  0
 98231  1  0  0  0  0
104232  1  0  0  0  0
105233  1  0  0  0  0
107234  1  0  0  0  0
107235  1  0  0  0  0
107236  1  0  0  0  0
108237  1  0  0  0  0
110238  1  0  0  0  0
114239  1  0  0  0  0
115240  1  0  0  0  0
118241  1  0  0  0  0
118242  1  0  0  0  0
119243  1  0  0  0  0
119244  1  0  0  0  0
119245  1  0  0  0  0
122246  1  0  0  0  0
127247  1  0  0  0  0
128248  1  0  0  0  0
131249  1  0  0  0  0
131250  1  0  0  0  0
132251  1  0  0  0  0
132252  1  0  0  0  0
132253  1  0  0  0  0
134254  1  0  0  0  0
138255  1  0  0  0  0
142256  1  0  0  0  0
146257  1  0  0  0  0
147258  1  0  0  0  0
150259  1  0  0  0  0
150260  1  0  0  0  0
151261  1  0  0  0  0
151262  1  0  0  0  0
151263  1  0  0  0  0
154264  1  0  0  0  0
159265  1  0  0  0  0
160266  1  0  0  0  0
163267  1  0  0  0  0
163268  1  0  0  0  0
164269  1  0  0  0  0
164270  1  0  0  0  0
164271  1  0  0  0  0
166272  1  0  0  0  0
170273  1  0  0  0  0
171274  1  0  0  0  0
M  END
