
  xtb     03042210523D
 energy: -495.073611816148 gnorm: 0.000182615320 xtb: 6.4.1 (unknown)
286315  0     0  0            999 V2000
   -9.4751   -4.1218    8.3821 C   0  0  0  0  0  0  0  0  0  0  0  0
   -8.5363   -3.2577    7.9490 C   0  0  0  0  0  0  0  0  0  0  0  0
   -8.3879   -3.2650    6.5300 C   0  0  0  0  0  0  0  0  0  0  0  0
   -7.4866   -2.5300    5.7513 C   0  0  0  0  0  0  0  0  0  0  0  0
   -6.5266   -1.5807    6.3356 C   0  0  0  0  0  0  0  0  0  0  0  0
   -5.1582   -1.7549    6.1422 C   0  0  0  0  0  0  0  0  0  0  0  0
   -4.2554   -0.8759    6.6986 C   0  0  0  0  0  0  0  0  0  0  0  0
   -4.6750    0.2338    7.4320 C   0  0  0  0  0  0  0  0  0  0  0  0
   -3.4034    1.3114    8.0240 S   0  0  0  0  0  0  0  0  0  0  0  0
   -4.0453    2.0180    9.5847 C   0  0  0  0  0  0  0  0  0  0  0  0
   -4.3671    0.9506   10.6108 C   0  0  0  0  0  0  0  0  0  0  0  0
   -6.0460    0.4150    7.5804 C   0  0  0  0  0  0  0  0  0  0  0  0
   -6.5439    1.4873    8.2389 F   0  0  0  0  0  0  0  0  0  0  0  0
   -6.9611   -0.4859    7.0710 C   0  0  0  0  0  0  0  0  0  0  0  0
   -7.5275   -2.7451    4.3835 C   0  0  0  0  0  0  0  0  0  0  0  0
   -8.4028   -3.6681    3.7607 C   0  0  0  0  0  0  0  0  0  0  0  0
   -9.2873   -4.4255    4.5451 C   0  0  0  0  0  0  0  0  0  0  0  0
  -10.1698   -5.4339    3.9474 C   0  0  0  0  0  0  0  0  0  0  0  0
   -9.6637   -6.3953    3.0731 C   0  0  0  0  0  0  0  0  0  0  0  0
  -10.4865   -7.3665    2.5452 C   0  0  0  0  0  0  0  0  0  0  0  0
  -11.8450   -7.4112    2.8518 C   0  0  0  0  0  0  0  0  0  0  0  0
  -12.8113   -8.6810    2.0872 S   0  0  0  0  0  0  0  0  0  0  0  0
  -13.9384   -9.2364    3.4193 C   0  0  0  0  0  0  0  0  0  0  0  0
  -13.1810   -9.7063    4.6448 C   0  0  0  0  0  0  0  0  0  0  0  0
  -12.3428   -6.4252    3.6978 C   0  0  0  0  0  0  0  0  0  0  0  0
  -11.5258   -5.4626    4.2548 C   0  0  0  0  0  0  0  0  0  0  0  0
  -13.6584   -6.3737    4.0015 F   0  0  0  0  0  0  0  0  0  0  0  0
   -9.2676   -4.1873    5.9135 C   0  0  0  0  0  0  0  0  0  0  0  0
  -10.2444   -5.0057    7.1074 S   0  0  0  0  0  0  0  0  0  0  0  0
   -8.2713   -3.6432    2.3463 C   0  0  0  0  0  0  0  0  0  0  0  0
   -7.3496   -2.7434    1.9039 C   0  0  0  0  0  0  0  0  0  0  0  0
   -6.5675   -1.8827    3.2178 S   0  0  0  0  0  0  0  0  0  0  0  0
   -6.9596   -2.4322    0.5671 C   0  0  0  0  0  0  0  0  0  0  0  0
   -6.2019   -1.3683    0.1820 C   0  0  0  0  0  0  0  0  0  0  0  0
   -5.9364   -1.3263   -1.2079 C   0  0  0  0  0  0  0  0  0  0  0  0
   -5.1282   -0.4025   -1.8976 C   0  0  0  0  0  0  0  0  0  0  0  0
   -4.5221    0.7323   -1.2294 C   0  0  0  0  0  0  0  0  0  0  0  0
   -3.2524    1.2158   -1.3773 C   0  0  0  0  0  0  0  0  0  0  0  0
   -3.0016    2.3308   -0.5513 C   0  0  0  0  0  0  0  0  0  0  0  0
   -1.4722    3.1240   -0.4884 Cl  0  0  0  0  0  0  0  0  0  0  0  0
   -4.0624    2.7231    0.2149 C   0  0  0  0  0  0  0  0  0  0  0  0
   -4.1108    3.8450    1.1946 C   0  0  0  0  0  0  0  0  0  0  0  0
   -5.4655    3.9685    1.8770 C   0  0  0  0  0  0  0  0  0  0  0  0
   -5.4133    1.6913   -0.0797 S   0  0  0  0  0  0  0  0  0  0  0  0
   -4.8987   -0.6710   -3.2420 C   0  0  0  0  0  0  0  0  0  0  0  0
   -5.4359   -1.7961   -3.9159 C   0  0  0  0  0  0  0  0  0  0  0  0
   -6.2737   -2.7024   -3.2331 C   0  0  0  0  0  0  0  0  0  0  0  0
   -6.8203   -3.8894   -3.8587 C   0  0  0  0  0  0  0  0  0  0  0  0
   -8.0387   -4.4700   -3.6409 C   0  0  0  0  0  0  0  0  0  0  0  0
   -8.2349   -5.6575   -4.3734 C   0  0  0  0  0  0  0  0  0  0  0  0
   -7.1687   -6.0040   -5.1446 C   0  0  0  0  0  0  0  0  0  0  0  0
   -7.0178   -7.1698   -6.0610 C   0  0  0  0  0  0  0  0  0  0  0  0
   -5.7423   -7.9630   -5.7803 C   0  0  0  0  0  0  0  0  0  0  0  0
   -5.8898   -4.8473   -4.9805 S   0  0  0  0  0  0  0  0  0  0  0  0
   -6.5057   -2.4304   -1.8871 C   0  0  0  0  0  0  0  0  0  0  0  0
   -7.4093   -3.4450   -0.7884 S   0  0  0  0  0  0  0  0  0  0  0  0
   -4.9797   -1.8663   -5.2559 C   0  0  0  0  0  0  0  0  0  0  0  0
   -4.1171   -0.8682   -5.5971 C   0  0  0  0  0  0  0  0  0  0  0  0
   -3.8891    0.2802   -4.2954 S   0  0  0  0  0  0  0  0  0  0  0  0
   -3.2344   -0.8452   -6.7236 C   0  0  0  0  0  0  0  0  0  0  0  0
   -2.7296   -1.9614   -7.3251 C   0  0  0  0  0  0  0  0  0  0  0  0
   -1.5866   -1.7085   -8.1226 C   0  0  0  0  0  0  0  0  0  0  0  0
   -0.6679   -2.6706   -8.5996 C   0  0  0  0  0  0  0  0  0  0  0  0
   -1.0077   -4.0778   -8.6210 C   0  0  0  0  0  0  0  0  0  0  0  0
   -0.2291   -5.1657   -8.3443 C   0  0  0  0  0  0  0  0  0  0  0  0
   -0.9241   -6.3854   -8.4858 C   0  0  0  0  0  0  0  0  0  0  0  0
   -0.1823   -7.9086   -8.1762 Cl  0  0  0  0  0  0  0  0  0  0  0  0
   -2.2269   -6.2559   -8.8706 C   0  0  0  0  0  0  0  0  0  0  0  0
   -3.2282   -7.3238   -9.1421 C   0  0  0  0  0  0  0  0  0  0  0  0
   -3.2226   -7.7213  -10.6201 C   0  0  0  0  0  0  0  0  0  0  0  0
   -2.6134   -4.5844   -9.0822 S   0  0  0  0  0  0  0  0  0  0  0  0
    0.5943   -2.1857   -8.9256 C   0  0  0  0  0  0  0  0  0  0  0  0
    0.9067   -0.8025   -8.9768 C   0  0  0  0  0  0  0  0  0  0  0  0
   -0.0617    0.1659   -8.6441 C   0  0  0  0  0  0  0  0  0  0  0  0
    0.1781    1.5939   -8.6462 C   0  0  0  0  0  0  0  0  0  0  0  0
   -0.7265    2.5689   -8.9691 C   0  0  0  0  0  0  0  0  0  0  0  0
   -0.2243    3.8749   -8.8139 C   0  0  0  0  0  0  0  0  0  0  0  0
    1.0540    3.9150   -8.3472 C   0  0  0  0  0  0  0  0  0  0  0  0
    1.9236    5.0969   -8.0985 C   0  0  0  0  0  0  0  0  0  0  0  0
    2.9573    5.2660   -9.2141 C   0  0  0  0  0  0  0  0  0  0  0  0
    1.6718    2.3165   -8.1104 S   0  0  0  0  0  0  0  0  0  0  0  0
   -1.2659   -0.3324   -8.1530 C   0  0  0  0  0  0  0  0  0  0  0  0
   -2.4222    0.6106   -7.2461 S   0  0  0  0  0  0  0  0  0  0  0  0
    2.2929   -0.5814   -9.1529 C   0  0  0  0  0  0  0  0  0  0  0  0
    3.0439   -1.7207   -9.1027 C   0  0  0  0  0  0  0  0  0  0  0  0
    2.0348   -3.1572   -9.1189 S   0  0  0  0  0  0  0  0  0  0  0  0
    4.3678   -1.7652   -8.5660 C   0  0  0  0  0  0  0  0  0  0  0  0
    4.8591   -2.7613   -7.7716 C   0  0  0  0  0  0  0  0  0  0  0  0
    5.7687   -2.2990   -6.7850 C   0  0  0  0  0  0  0  0  0  0  0  0
    6.1425   -3.0025   -5.6258 C   0  0  0  0  0  0  0  0  0  0  0  0
    5.9170   -4.4499   -5.5398 C   0  0  0  0  0  0  0  0  0  0  0  0
    5.2322   -5.0367   -4.4777 C   0  0  0  0  0  0  0  0  0  0  0  0
    5.0437   -6.4015   -4.4344 C   0  0  0  0  0  0  0  0  0  0  0  0
    5.5225   -7.2358   -5.4425 C   0  0  0  0  0  0  0  0  0  0  0  0
    5.1802   -8.9648   -5.2932 S   0  0  0  0  0  0  0  0  0  0  0  0
    6.7136   -9.7754   -5.8797 C   0  0  0  0  0  0  0  0  0  0  0  0
    7.9261   -9.3388   -5.0824 C   0  0  0  0  0  0  0  0  0  0  0  0
    6.1773   -6.6332   -6.5127 C   0  0  0  0  0  0  0  0  0  0  0  0
    6.6378   -7.3688   -7.5491 F   0  0  0  0  0  0  0  0  0  0  0  0
    6.3823   -5.2699   -6.5644 C   0  0  0  0  0  0  0  0  0  0  0  0
    6.6102   -2.2329   -4.5704 C   0  0  0  0  0  0  0  0  0  0  0  0
    6.8660   -0.8453   -4.6916 C   0  0  0  0  0  0  0  0  0  0  0  0
    6.6183   -0.1645   -5.8991 C   0  0  0  0  0  0  0  0  0  0  0  0
    6.8348    1.2867   -5.9613 C   0  0  0  0  0  0  0  0  0  0  0  0
    8.0447    1.8359   -5.5434 C   0  0  0  0  0  0  0  0  0  0  0  0
    8.2411    3.2030   -5.5021 C   0  0  0  0  0  0  0  0  0  0  0  0
    7.2274    4.0778   -5.8777 C   0  0  0  0  0  0  0  0  0  0  0  0
    7.3092    5.8338   -5.8411 S   0  0  0  0  0  0  0  0  0  0  0  0
    8.9321    6.2074   -5.0955 C   0  0  0  0  0  0  0  0  0  0  0  0
   10.0657    6.1358   -6.1018 C   0  0  0  0  0  0  0  0  0  0  0  0
    6.0253    3.5118   -6.3091 C   0  0  0  0  0  0  0  0  0  0  0  0
    5.8153    2.1532   -6.3537 C   0  0  0  0  0  0  0  0  0  0  0  0
    5.0147    4.3289   -6.6719 F   0  0  0  0  0  0  0  0  0  0  0  0
    6.0110   -0.9064   -6.8977 C   0  0  0  0  0  0  0  0  0  0  0  0
    5.2292   -0.2514   -8.3177 S   0  0  0  0  0  0  0  0  0  0  0  0
    7.1062   -0.2399   -3.4328 C   0  0  0  0  0  0  0  0  0  0  0  0
    6.9966   -1.1016   -2.3822 C   0  0  0  0  0  0  0  0  0  0  0  0
    6.7583   -2.7541   -2.9074 S   0  0  0  0  0  0  0  0  0  0  0  0
    6.7515   -0.6800   -1.0341 C   0  0  0  0  0  0  0  0  0  0  0  0
    7.1557    0.4814   -0.4496 C   0  0  0  0  0  0  0  0  0  0  0  0
    6.4023    0.8344    0.7011 C   0  0  0  0  0  0  0  0  0  0  0  0
    6.4879    2.0142    1.4618 C   0  0  0  0  0  0  0  0  0  0  0  0
    7.4406    3.0735    1.1083 C   0  0  0  0  0  0  0  0  0  0  0  0
    8.2626    3.6628    2.0626 C   0  0  0  0  0  0  0  0  0  0  0  0
    9.1710    4.6463    1.7178 C   0  0  0  0  0  0  0  0  0  0  0  0
    9.2951    5.0721    0.4005 C   0  0  0  0  0  0  0  0  0  0  0  0
   10.4081    6.3026   -0.1919 S   0  0  0  0  0  0  0  0  0  0  0  0
   11.5050    6.6471    1.2246 C   0  0  0  0  0  0  0  0  0  0  0  0
   12.4978    5.5272    1.4732 C   0  0  0  0  0  0  0  0  0  0  0  0
    8.4445    4.4905   -0.5411 C   0  0  0  0  0  0  0  0  0  0  0  0
    8.5269    4.8867   -1.8311 F   0  0  0  0  0  0  0  0  0  0  0  0
    7.5283    3.5206   -0.2105 C   0  0  0  0  0  0  0  0  0  0  0  0
    5.5724    2.1572    2.4950 C   0  0  0  0  0  0  0  0  0  0  0  0
    4.5621    1.1998    2.7553 C   0  0  0  0  0  0  0  0  0  0  0  0
    4.4794    0.0164    2.0047 C   0  0  0  0  0  0  0  0  0  0  0  0
    3.3691   -0.9184    2.2354 C   0  0  0  0  0  0  0  0  0  0  0  0
    3.0832   -1.3989    3.5128 C   0  0  0  0  0  0  0  0  0  0  0  0
    1.9806   -2.1967    3.7341 C   0  0  0  0  0  0  0  0  0  0  0  0
    1.1149   -2.5389    2.6977 C   0  0  0  0  0  0  0  0  0  0  0  0
   -0.3223   -3.4853    3.1104 S   0  0  0  0  0  0  0  0  0  0  0  0
   -0.4429   -4.7074    1.7511 C   0  0  0  0  0  0  0  0  0  0  0  0
    0.8154   -5.5423    1.6271 C   0  0  0  0  0  0  0  0  0  0  0  0
    1.4159   -2.0565    1.4280 C   0  0  0  0  0  0  0  0  0  0  0  0
    2.5267   -1.2738    1.1876 C   0  0  0  0  0  0  0  0  0  0  0  0
    0.6062   -2.3232    0.3786 F   0  0  0  0  0  0  0  0  0  0  0  0
    5.4128   -0.1383    0.9943 C   0  0  0  0  0  0  0  0  0  0  0  0
    5.4785   -1.4737   -0.1238 S   0  0  0  0  0  0  0  0  0  0  0  0
    3.6379    1.6574    3.7245 C   0  0  0  0  0  0  0  0  0  0  0  0
    3.9182    2.8982    4.2117 C   0  0  0  0  0  0  0  0  0  0  0  0
    5.3826    3.5626    3.5186 S   0  0  0  0  0  0  0  0  0  0  0  0
    3.0727    3.5974    5.1325 C   0  0  0  0  0  0  0  0  0  0  0  0
    1.7345    3.3709    5.2488 C   0  0  0  0  0  0  0  0  0  0  0  0
    1.1106    4.1249    6.2729 C   0  0  0  0  0  0  0  0  0  0  0  0
   -0.2398    4.0924    6.6561 C   0  0  0  0  0  0  0  0  0  0  0  0
   -1.1791    3.1938    5.9764 C   0  0  0  0  0  0  0  0  0  0  0  0
   -2.3889    3.6562    5.4622 C   0  0  0  0  0  0  0  0  0  0  0  0
   -3.2108    2.8166    4.7441 C   0  0  0  0  0  0  0  0  0  0  0  0
   -2.8770    1.4816    4.5096 C   0  0  0  0  0  0  0  0  0  0  0  0
   -4.0271    0.5504    3.5480 S   0  0  0  0  0  0  0  0  0  0  0  0
   -3.0695   -0.8049    2.7787 C   0  0  0  0  0  0  0  0  0  0  0  0
   -1.9712   -0.2962    1.8693 C   0  0  0  0  0  0  0  0  0  0  0  0
   -1.6995    1.0189    5.0883 C   0  0  0  0  0  0  0  0  0  0  0  0
   -1.3212   -0.2770    4.9874 F   0  0  0  0  0  0  0  0  0  0  0  0
   -0.8586    1.8527    5.7958 C   0  0  0  0  0  0  0  0  0  0  0  0
   -0.6087    4.9504    7.6812 C   0  0  0  0  0  0  0  0  0  0  0  0
    0.3093    5.8014    8.3443 C   0  0  0  0  0  0  0  0  0  0  0  0
    1.6607    5.8208    7.9668 C   0  0  0  0  0  0  0  0  0  0  0  0
    2.6443    6.6659    8.6554 C   0  0  0  0  0  0  0  0  0  0  0  0
    2.7769    6.6305   10.0426 C   0  0  0  0  0  0  0  0  0  0  0  0
    3.7282    7.4009   10.6758 C   0  0  0  0  0  0  0  0  0  0  0  0
    4.5717    8.2477    9.9587 C   0  0  0  0  0  0  0  0  0  0  0  0
    5.7191    9.2211   10.8886 S   0  0  0  0  0  0  0  0  0  0  0  0
    7.2367    9.2279    9.8642 C   0  0  0  0  0  0  0  0  0  0  0  0
    7.7367    7.8264    9.5779 C   0  0  0  0  0  0  0  0  0  0  0  0
    4.4071    8.2946    8.5779 C   0  0  0  0  0  0  0  0  0  0  0  0
    3.4781    7.5078    7.9280 C   0  0  0  0  0  0  0  0  0  0  0  0
    5.1549    9.1253    7.8185 F   0  0  0  0  0  0  0  0  0  0  0  0
    2.0274    4.9862    6.9210 C   0  0  0  0  0  0  0  0  0  0  0  0
    3.6386    4.8047    6.2658 S   0  0  0  0  0  0  0  0  0  0  0  0
   -0.3341    6.5792    9.3536 C   0  0  0  0  0  0  0  0  0  0  0  0
   -1.6501    6.3093    9.4651 C   0  0  0  0  0  0  0  0  0  0  0  0
   -2.2100    5.1048    8.3549 S   0  0  0  0  0  0  0  0  0  0  0  0
   -9.7848   -4.3107    9.3914 H   0  0  0  0  0  0  0  0  0  0  0  0
   -7.9498   -2.6321    8.5973 H   0  0  0  0  0  0  0  0  0  0  0  0
   -4.8021   -2.5999    5.5731 H   0  0  0  0  0  0  0  0  0  0  0  0
   -3.1962   -1.0353    6.5742 H   0  0  0  0  0  0  0  0  0  0  0  0
   -4.9035    2.6474    9.3619 H   0  0  0  0  0  0  0  0  0  0  0  0
   -3.2224    2.6503    9.9187 H   0  0  0  0  0  0  0  0  0  0  0  0
   -4.6627    1.4198   11.5470 H   0  0  0  0  0  0  0  0  0  0  0  0
   -5.1855    0.3194   10.2711 H   0  0  0  0  0  0  0  0  0  0  0  0
   -3.4981    0.3215   10.7921 H   0  0  0  0  0  0  0  0  0  0  0  0
   -8.0135   -0.3006    7.2236 H   0  0  0  0  0  0  0  0  0  0  0  0
   -8.6109   -6.3987    2.8357 H   0  0  0  0  0  0  0  0  0  0  0  0
  -10.0882   -8.1189    1.8823 H   0  0  0  0  0  0  0  0  0  0  0  0
  -14.6344   -8.4339    3.6526 H   0  0  0  0  0  0  0  0  0  0  0  0
  -14.4853  -10.0574    2.9555 H   0  0  0  0  0  0  0  0  0  0  0  0
  -12.4719  -10.4879    4.3794 H   0  0  0  0  0  0  0  0  0  0  0  0
  -13.8810  -10.1027    5.3775 H   0  0  0  0  0  0  0  0  0  0  0  0
  -12.6339   -8.8842    5.1029 H   0  0  0  0  0  0  0  0  0  0  0  0
  -11.9677   -4.7211    4.9017 H   0  0  0  0  0  0  0  0  0  0  0  0
   -8.8619   -4.2448    1.6786 H   0  0  0  0  0  0  0  0  0  0  0  0
   -5.8387   -0.6432    0.8872 H   0  0  0  0  0  0  0  0  0  0  0  0
   -2.5064    0.7761   -2.0124 H   0  0  0  0  0  0  0  0  0  0  0  0
   -3.3290    3.6826    1.9444 H   0  0  0  0  0  0  0  0  0  0  0  0
   -3.8663    4.7768    0.6741 H   0  0  0  0  0  0  0  0  0  0  0  0
   -5.7060    3.0487    2.4066 H   0  0  0  0  0  0  0  0  0  0  0  0
   -6.2462    4.1548    1.1426 H   0  0  0  0  0  0  0  0  0  0  0  0
   -5.4566    4.7922    2.5867 H   0  0  0  0  0  0  0  0  0  0  0  0
   -8.7905   -4.0417   -3.0029 H   0  0  0  0  0  0  0  0  0  0  0  0
   -9.1418   -6.2341   -4.3286 H   0  0  0  0  0  0  0  0  0  0  0  0
   -6.9957   -6.8145   -7.0964 H   0  0  0  0  0  0  0  0  0  0  0  0
   -7.8919   -7.8147   -5.9474 H   0  0  0  0  0  0  0  0  0  0  0  0
   -5.7451   -8.3346   -4.7581 H   0  0  0  0  0  0  0  0  0  0  0  0
   -5.6678   -8.8101   -6.4577 H   0  0  0  0  0  0  0  0  0  0  0  0
   -4.8666   -7.3317   -5.9150 H   0  0  0  0  0  0  0  0  0  0  0  0
   -5.2658   -2.6326   -5.9505 H   0  0  0  0  0  0  0  0  0  0  0  0
   -3.0882   -2.9463   -7.0922 H   0  0  0  0  0  0  0  0  0  0  0  0
    0.7902   -5.1138   -8.0118 H   0  0  0  0  0  0  0  0  0  0  0  0
   -2.9847   -8.1945   -8.5294 H   0  0  0  0  0  0  0  0  0  0  0  0
   -4.2226   -6.9685   -8.8648 H   0  0  0  0  0  0  0  0  0  0  0  0
   -3.4669   -6.8635  -11.2426 H   0  0  0  0  0  0  0  0  0  0  0  0
   -2.2405   -8.0893  -10.9064 H   0  0  0  0  0  0  0  0  0  0  0  0
   -3.9545   -8.5042  -10.8011 H   0  0  0  0  0  0  0  0  0  0  0  0
   -1.7124    2.3539   -9.3416 H   0  0  0  0  0  0  0  0  0  0  0  0
   -0.7966    4.7582   -9.0358 H   0  0  0  0  0  0  0  0  0  0  0  0
    2.4527    4.9774   -7.1512 H   0  0  0  0  0  0  0  0  0  0  0  0
    1.2968    5.9890   -8.0366 H   0  0  0  0  0  0  0  0  0  0  0  0
    3.5815    6.1320   -9.0131 H   0  0  0  0  0  0  0  0  0  0  0  0
    3.5965    4.3881   -9.2665 H   0  0  0  0  0  0  0  0  0  0  0  0
    2.4652    5.3992  -10.1754 H   0  0  0  0  0  0  0  0  0  0  0  0
    2.7432    0.3928   -9.1781 H   0  0  0  0  0  0  0  0  0  0  0  0
    4.4542   -3.7579   -7.7744 H   0  0  0  0  0  0  0  0  0  0  0  0
    4.8290   -4.4207   -3.6897 H   0  0  0  0  0  0  0  0  0  0  0  0
    4.5125   -6.8517   -3.6103 H   0  0  0  0  0  0  0  0  0  0  0  0
    6.8331   -9.5834   -6.9436 H   0  0  0  0  0  0  0  0  0  0  0  0
    6.5061  -10.8353   -5.7315 H   0  0  0  0  0  0  0  0  0  0  0  0
    8.1272   -8.2793   -5.2302 H   0  0  0  0  0  0  0  0  0  0  0  0
    8.7991   -9.9023   -5.4055 H   0  0  0  0  0  0  0  0  0  0  0  0
    7.7684   -9.5150   -4.0203 H   0  0  0  0  0  0  0  0  0  0  0  0
    6.9085   -4.8546   -7.4104 H   0  0  0  0  0  0  0  0  0  0  0  0
    8.8510    1.1792   -5.2512 H   0  0  0  0  0  0  0  0  0  0  0  0
    9.1894    3.5812   -5.1582 H   0  0  0  0  0  0  0  0  0  0  0  0
    8.8154    7.2249   -4.7227 H   0  0  0  0  0  0  0  0  0  0  0  0
    9.0761    5.5461   -4.2434 H   0  0  0  0  0  0  0  0  0  0  0  0
   10.1472    5.1429   -6.5386 H   0  0  0  0  0  0  0  0  0  0  0  0
    9.8981    6.8470   -6.9075 H   0  0  0  0  0  0  0  0  0  0  0  0
   11.0069    6.3796   -5.6126 H   0  0  0  0  0  0  0  0  0  0  0  0
    4.8479    1.7871   -6.6576 H   0  0  0  0  0  0  0  0  0  0  0  0
    7.2235    0.8208   -3.3058 H   0  0  0  0  0  0  0  0  0  0  0  0
    7.9620    1.0744   -0.8398 H   0  0  0  0  0  0  0  0  0  0  0  0
    8.2052    3.3374    3.0901 H   0  0  0  0  0  0  0  0  0  0  0  0
    9.7837    5.0778    2.4921 H   0  0  0  0  0  0  0  0  0  0  0  0
   10.8878    6.8620    2.0958 H   0  0  0  0  0  0  0  0  0  0  0  0
   12.0201    7.5619    0.9311 H   0  0  0  0  0  0  0  0  0  0  0  0
   11.9886    4.5960    1.7123 H   0  0  0  0  0  0  0  0  0  0  0  0
   13.1089    5.3650    0.5883 H   0  0  0  0  0  0  0  0  0  0  0  0
   13.1508    5.7898    2.3032 H   0  0  0  0  0  0  0  0  0  0  0  0
    6.8719    3.1355   -0.9750 H   0  0  0  0  0  0  0  0  0  0  0  0
    3.7420   -1.1554    4.3327 H   0  0  0  0  0  0  0  0  0  0  0  0
    1.7596   -2.5624    4.7246 H   0  0  0  0  0  0  0  0  0  0  0  0
   -1.2956   -5.3208    2.0424 H   0  0  0  0  0  0  0  0  0  0  0  0
   -0.6807   -4.1892    0.8246 H   0  0  0  0  0  0  0  0  0  0  0  0
    1.0452   -6.0299    2.5722 H   0  0  0  0  0  0  0  0  0  0  0  0
    1.6649   -4.9244    1.3411 H   0  0  0  0  0  0  0  0  0  0  0  0
    0.6746   -6.3054    0.8643 H   0  0  0  0  0  0  0  0  0  0  0  0
    2.6965   -0.9108    0.1861 H   0  0  0  0  0  0  0  0  0  0  0  0
    2.7830    1.0864    4.0351 H   0  0  0  0  0  0  0  0  0  0  0  0
    1.1985    2.7088    4.5951 H   0  0  0  0  0  0  0  0  0  0  0  0
   -2.6706    4.6887    5.5986 H   0  0  0  0  0  0  0  0  0  0  0  0
   -4.1413    3.1832    4.3411 H   0  0  0  0  0  0  0  0  0  0  0  0
   -2.6851   -1.4588    3.5579 H   0  0  0  0  0  0  0  0  0  0  0  0
   -3.8276   -1.3437    2.2096 H   0  0  0  0  0  0  0  0  0  0  0  0
   -1.5259   -1.1339    1.3390 H   0  0  0  0  0  0  0  0  0  0  0  0
   -1.1901    0.2044    2.4374 H   0  0  0  0  0  0  0  0  0  0  0  0
   -2.3688    0.4023    1.1372 H   0  0  0  0  0  0  0  0  0  0  0  0
    0.0320    1.4306    6.2354 H   0  0  0  0  0  0  0  0  0  0  0  0
    2.1510    5.9684   10.6213 H   0  0  0  0  0  0  0  0  0  0  0  0
    3.8397    7.3596   11.7482 H   0  0  0  0  0  0  0  0  0  0  0  0
    7.9469    9.7811   10.4790 H   0  0  0  0  0  0  0  0  0  0  0  0
    7.0467    9.7880    8.9514 H   0  0  0  0  0  0  0  0  0  0  0  0
    7.8912    7.2790   10.5055 H   0  0  0  0  0  0  0  0  0  0  0  0
    8.6814    7.8782    9.0402 H   0  0  0  0  0  0  0  0  0  0  0  0
    7.0240    7.2763    8.9662 H   0  0  0  0  0  0  0  0  0  0  0  0
    3.3938    7.5863    6.8553 H   0  0  0  0  0  0  0  0  0  0  0  0
    0.1777    7.3131    9.9492 H   0  0  0  0  0  0  0  0  0  0  0  0
   -2.3580    6.7521   10.1384 H   0  0  0  0  0  0  0  0  0  0  0  0
  1  2  2  0  0  0  0
  2  3  1  0  0  0  0
  3  4  2  0  0  0  0
  4  5  1  0  0  0  0
  5  6  2  0  0  0  0
  6  7  1  0  0  0  0
  7  8  2  0  0  0  0
  8  9  1  0  0  0  0
  9 10  1  0  0  0  0
 10 11  1  0  0  0  0
  8 12  1  0  0  0  0
 12 13  1  0  0  0  0
 12 14  2  0  0  0  0
  4 15  1  0  0  0  0
 15 16  2  0  0  0  0
 16 17  1  0  0  0  0
 17 18  1  0  0  0  0
 18 19  2  0  0  0  0
 19 20  1  0  0  0  0
 20 21  2  0  0  0  0
 21 22  1  0  0  0  0
 22 23  1  0  0  0  0
 23 24  1  0  0  0  0
 21 25  1  0  0  0  0
 25 26  2  0  0  0  0
 25 27  1  0  0  0  0
 17 28  2  0  0  0  0
 28 29  1  0  0  0  0
 16 30  1  0  0  0  0
 30 31  2  0  0  0  0
 31 32  1  0  0  0  0
 31 33  1  0  0  0  0
 33 34  2  0  0  0  0
 34 35  1  0  0  0  0
 35 36  2  0  0  0  0
 36 37  1  0  0  0  0
 37 38  2  0  0  0  0
 38 39  1  0  0  0  0
 39 40  1  0  0  0  0
 39 41  2  0  0  0  0
 41 42  1  0  0  0  0
 42 43  1  0  0  0  0
 41 44  1  0  0  0  0
 36 45  1  0  0  0  0
 45 46  2  0  0  0  0
 46 47  1  0  0  0  0
 47 48  1  0  0  0  0
 48 49  2  0  0  0  0
 49 50  1  0  0  0  0
 50 51  2  0  0  0  0
 51 52  1  0  0  0  0
 52 53  1  0  0  0  0
 51 54  1  0  0  0  0
 47 55  2  0  0  0  0
 55 56  1  0  0  0  0
 46 57  1  0  0  0  0
 57 58  2  0  0  0  0
 58 59  1  0  0  0  0
 58 60  1  0  0  0  0
 60 61  2  0  0  0  0
 61 62  1  0  0  0  0
 62 63  2  0  0  0  0
 63 64  1  0  0  0  0
 64 65  2  0  0  0  0
 65 66  1  0  0  0  0
 66 67  1  0  0  0  0
 66 68  2  0  0  0  0
 68 69  1  0  0  0  0
 69 70  1  0  0  0  0
 68 71  1  0  0  0  0
 63 72  1  0  0  0  0
 72 73  2  0  0  0  0
 73 74  1  0  0  0  0
 74 75  1  0  0  0  0
 75 76  2  0  0  0  0
 76 77  1  0  0  0  0
 77 78  2  0  0  0  0
 78 79  1  0  0  0  0
 79 80  1  0  0  0  0
 78 81  1  0  0  0  0
 74 82  2  0  0  0  0
 82 83  1  0  0  0  0
 73 84  1  0  0  0  0
 84 85  2  0  0  0  0
 85 86  1  0  0  0  0
 85 87  1  0  0  0  0
 87 88  2  0  0  0  0
 88 89  1  0  0  0  0
 89 90  2  0  0  0  0
 90 91  1  0  0  0  0
 91 92  2  0  0  0  0
 92 93  1  0  0  0  0
 93 94  2  0  0  0  0
 94 95  1  0  0  0  0
 95 96  1  0  0  0  0
 96 97  1  0  0  0  0
 94 98  1  0  0  0  0
 98 99  1  0  0  0  0
 98100  2  0  0  0  0
 90101  1  0  0  0  0
101102  2  0  0  0  0
102103  1  0  0  0  0
103104  1  0  0  0  0
104105  2  0  0  0  0
105106  1  0  0  0  0
106107  2  0  0  0  0
107108  1  0  0  0  0
108109  1  0  0  0  0
109110  1  0  0  0  0
107111  1  0  0  0  0
111112  2  0  0  0  0
111113  1  0  0  0  0
103114  2  0  0  0  0
114115  1  0  0  0  0
102116  1  0  0  0  0
116117  2  0  0  0  0
117118  1  0  0  0  0
117119  1  0  0  0  0
119120  2  0  0  0  0
120121  1  0  0  0  0
121122  2  0  0  0  0
122123  1  0  0  0  0
123124  2  0  0  0  0
124125  1  0  0  0  0
125126  2  0  0  0  0
126127  1  0  0  0  0
127128  1  0  0  0  0
128129  1  0  0  0  0
126130  1  0  0  0  0
130131  1  0  0  0  0
130132  2  0  0  0  0
122133  1  0  0  0  0
133134  2  0  0  0  0
134135  1  0  0  0  0
135136  1  0  0  0  0
136137  2  0  0  0  0
137138  1  0  0  0  0
138139  2  0  0  0  0
139140  1  0  0  0  0
140141  1  0  0  0  0
141142  1  0  0  0  0
139143  1  0  0  0  0
143144  2  0  0  0  0
143145  1  0  0  0  0
135146  2  0  0  0  0
146147  1  0  0  0  0
134148  1  0  0  0  0
148149  2  0  0  0  0
149150  1  0  0  0  0
149151  1  0  0  0  0
151152  2  0  0  0  0
152153  1  0  0  0  0
153154  2  0  0  0  0
154155  1  0  0  0  0
155156  2  0  0  0  0
156157  1  0  0  0  0
157158  2  0  0  0  0
158159  1  0  0  0  0
159160  1  0  0  0  0
160161  1  0  0  0  0
158162  1  0  0  0  0
162163  1  0  0  0  0
162164  2  0  0  0  0
154165  1  0  0  0  0
165166  2  0  0  0  0
166167  1  0  0  0  0
167168  1  0  0  0  0
168169  2  0  0  0  0
169170  1  0  0  0  0
170171  2  0  0  0  0
171172  1  0  0  0  0
172173  1  0  0  0  0
173174  1  0  0  0  0
171175  1  0  0  0  0
175176  2  0  0  0  0
175177  1  0  0  0  0
167178  2  0  0  0  0
178179  1  0  0  0  0
166180  1  0  0  0  0
180181  2  0  0  0  0
181182  1  0  0  0  0
 29  1  1  0  0  0  0
 56 33  1  0  0  0  0
 83 60  1  0  0  0  0
115 87  1  0  0  0  0
147119  1  0  0  0  0
179151  1  0  0  0  0
 28  3  1  0  0  0  0
 55 35  1  0  0  0  0
 82 62  1  0  0  0  0
114 89  1  0  0  0  0
146121  1  0  0  0  0
178153  1  0  0  0  0
 14  5  1  0  0  0  0
 32 15  1  0  0  0  0
 44 37  1  0  0  0  0
 59 45  1  0  0  0  0
 71 64  1  0  0  0  0
 86 72  1  0  0  0  0
100 91  1  0  0  0  0
118101  1  0  0  0  0
132123  1  0  0  0  0
150133  1  0  0  0  0
164155  1  0  0  0  0
182165  1  0  0  0  0
 26 18  1  0  0  0  0
 54 48  1  0  0  0  0
 81 75  1  0  0  0  0
112104  1  0  0  0  0
144136  1  0  0  0  0
176168  1  0  0  0  0
  1183  1  0  0  0  0
  2184  1  0  0  0  0
  6185  1  0  0  0  0
  7186  1  0  0  0  0
 10187  1  0  0  0  0
 10188  1  0  0  0  0
 11189  1  0  0  0  0
 11190  1  0  0  0  0
 11191  1  0  0  0  0
 14192  1  0  0  0  0
 19193  1  0  0  0  0
 20194  1  0  0  0  0
 23195  1  0  0  0  0
 23196  1  0  0  0  0
 24197  1  0  0  0  0
 24198  1  0  0  0  0
 24199  1  0  0  0  0
 26200  1  0  0  0  0
 30201  1  0  0  0  0
 34202  1  0  0  0  0
 38203  1  0  0  0  0
 42204  1  0  0  0  0
 42205  1  0  0  0  0
 43206  1  0  0  0  0
 43207  1  0  0  0  0
 43208  1  0  0  0  0
 49209  1  0  0  0  0
 50210  1  0  0  0  0
 52211  1  0  0  0  0
 52212  1  0  0  0  0
 53213  1  0  0  0  0
 53214  1  0  0  0  0
 53215  1  0  0  0  0
 57216  1  0  0  0  0
 61217  1  0  0  0  0
 65218  1  0  0  0  0
 69219  1  0  0  0  0
 69220  1  0  0  0  0
 70221  1  0  0  0  0
 70222  1  0  0  0  0
 70223  1  0  0  0  0
 76224  1  0  0  0  0
 77225  1  0  0  0  0
 79226  1  0  0  0  0
 79227  1  0  0  0  0
 80228  1  0  0  0  0
 80229  1  0  0  0  0
 80230  1  0  0  0  0
 84231  1  0  0  0  0
 88232  1  0  0  0  0
 92233  1  0  0  0  0
 93234  1  0  0  0  0
 96235  1  0  0  0  0
 96236  1  0  0  0  0
 97237  1  0  0  0  0
 97238  1  0  0  0  0
 97239  1  0  0  0  0
100240  1  0  0  0  0
105241  1  0  0  0  0
106242  1  0  0  0  0
109243  1  0  0  0  0
109244  1  0  0  0  0
110245  1  0  0  0  0
110246  1  0  0  0  0
110247  1  0  0  0  0
112248  1  0  0  0  0
116249  1  0  0  0  0
120250  1  0  0  0  0
124251  1  0  0  0  0
125252  1  0  0  0  0
128253  1  0  0  0  0
128254  1  0  0  0  0
129255  1  0  0  0  0
129256  1  0  0  0  0
129257  1  0  0  0  0
132258  1  0  0  0  0
137259  1  0  0  0  0
138260  1  0  0  0  0
141261  1  0  0  0  0
141262  1  0  0  0  0
142263  1  0  0  0  0
142264  1  0  0  0  0
142265  1  0  0  0  0
144266  1  0  0  0  0
148267  1  0  0  0  0
152268  1  0  0  0  0
156269  1  0  0  0  0
157270  1  0  0  0  0
160271  1  0  0  0  0
160272  1  0  0  0  0
161273  1  0  0  0  0
161274  1  0  0  0  0
161275  1  0  0  0  0
164276  1  0  0  0  0
169277  1  0  0  0  0
170278  1  0  0  0  0
173279  1  0  0  0  0
173280  1  0  0  0  0
174281  1  0  0  0  0
174282  1  0  0  0  0
174283  1  0  0  0  0
176284  1  0  0  0  0
180285  1  0  0  0  0
181286  1  0  0  0  0
M  END
