
  xtb     03022201493D
 energy: -447.683963294528 gnorm: 0.000222311238 xtb: 6.4.1 (unknown)
227253  0     0  0            999 V2000
    2.1405  -18.0224    2.7344 C   0  0  0  0  0  0  0  0  0  0  0  0
    2.9221  -16.9286    2.8441 C   0  0  0  0  0  0  0  0  0  0  0  0
    2.3506  -15.7781    2.2272 C   0  0  0  0  0  0  0  0  0  0  0  0
    2.8880  -14.4860    2.1267 C   0  0  0  0  0  0  0  0  0  0  0  0
    4.1889  -14.1390    2.6785 C   0  0  0  0  0  0  0  0  0  0  0  0
    5.6268  -15.0121    2.2368 S   0  0  0  0  0  0  0  0  0  0  0  0
    6.6417  -13.9801    3.1848 C   0  0  0  0  0  0  0  0  0  0  0  0
    8.1206  -14.1509    3.2100 C   0  0  0  0  0  0  0  0  0  0  0  0
    8.7864  -13.2851    2.1374 C   0  0  0  0  0  0  0  0  0  0  0  0
    5.8961  -13.0186    3.7982 C   0  0  0  0  0  0  0  0  0  0  0  0
    6.5544  -11.8059    4.8178 Cl  0  0  0  0  0  0  0  0  0  0  0  0
    4.5061  -13.1078    3.5188 C   0  0  0  0  0  0  0  0  0  0  0  0
    3.3576  -12.0643    4.2464 Cl  0  0  0  0  0  0  0  0  0  0  0  0
    2.1325  -13.5410    1.4437 C   0  0  0  0  0  0  0  0  0  0  0  0
    0.8660  -13.8253    0.8770 C   0  0  0  0  0  0  0  0  0  0  0  0
    0.3150  -15.1108    1.0038 C   0  0  0  0  0  0  0  0  0  0  0  0
   -0.9875  -15.4277    0.4409 C   0  0  0  0  0  0  0  0  0  0  0  0
   -1.3429  -15.1194   -1.2339 S   0  0  0  0  0  0  0  0  0  0  0  0
   -2.9555  -15.7298   -1.0879 C   0  0  0  0  0  0  0  0  0  0  0  0
   -3.8966  -15.6925   -2.2406 C   0  0  0  0  0  0  0  0  0  0  0  0
   -4.4682  -14.2853   -2.4313 C   0  0  0  0  0  0  0  0  0  0  0  0
   -3.1911  -16.1391    0.1903 C   0  0  0  0  0  0  0  0  0  0  0  0
   -2.0771  -15.9761    1.0581 C   0  0  0  0  0  0  0  0  0  0  0  0
   -2.1541  -16.3511    2.7281 Cl  0  0  0  0  0  0  0  0  0  0  0  0
   -4.6828  -16.7955    0.7271 Cl  0  0  0  0  0  0  0  0  0  0  0  0
    1.0790  -16.0612    1.6719 C   0  0  0  0  0  0  0  0  0  0  0  0
    0.6580  -17.7350    1.8944 S   0  0  0  0  0  0  0  0  0  0  0  0
    0.3095  -12.6905    0.2344 C   0  0  0  0  0  0  0  0  0  0  0  0
    1.1161  -11.5938    0.2769 C   0  0  0  0  0  0  0  0  0  0  0  0
    2.6164  -11.9015    1.1259 S   0  0  0  0  0  0  0  0  0  0  0  0
    0.8687  -10.2938   -0.2523 C   0  0  0  0  0  0  0  0  0  0  0  0
    1.6350   -9.1815   -0.0731 C   0  0  0  0  0  0  0  0  0  0  0  0
    1.1249   -8.0313   -0.7201 C   0  0  0  0  0  0  0  0  0  0  0  0
    1.6817   -6.7411   -0.7520 C   0  0  0  0  0  0  0  0  0  0  0  0
    2.9283   -6.4488   -0.0638 C   0  0  0  0  0  0  0  0  0  0  0  0
    4.3473   -7.4220   -0.3205 S   0  0  0  0  0  0  0  0  0  0  0  0
    5.2820   -6.5051    0.8110 C   0  0  0  0  0  0  0  0  0  0  0  0
    6.6794   -6.8979    1.1405 C   0  0  0  0  0  0  0  0  0  0  0  0
    6.6989   -8.1483    2.0234 C   0  0  0  0  0  0  0  0  0  0  0  0
    4.5270   -5.5038    1.3438 C   0  0  0  0  0  0  0  0  0  0  0  0
    5.1014   -4.3840    2.5107 Cl  0  0  0  0  0  0  0  0  0  0  0  0
    3.1956   -5.4642    0.8468 C   0  0  0  0  0  0  0  0  0  0  0  0
    2.0390   -4.3445    1.4313 Cl  0  0  0  0  0  0  0  0  0  0  0  0
    0.9864   -5.7753   -1.4669 C   0  0  0  0  0  0  0  0  0  0  0  0
   -0.2436   -6.0377   -2.1218 C   0  0  0  0  0  0  0  0  0  0  0  0
   -0.8049   -7.3271   -2.0813 C   0  0  0  0  0  0  0  0  0  0  0  0
   -2.0490   -7.6310   -2.7693 C   0  0  0  0  0  0  0  0  0  0  0  0
   -2.2506   -7.2564   -4.4574 S   0  0  0  0  0  0  0  0  0  0  0  0
   -3.8444   -7.9282   -4.5007 C   0  0  0  0  0  0  0  0  0  0  0  0
   -4.6698   -7.8814   -5.7390 C   0  0  0  0  0  0  0  0  0  0  0  0
   -5.4317   -6.5574   -5.8374 C   0  0  0  0  0  0  0  0  0  0  0  0
   -4.1903   -8.4002   -3.2701 C   0  0  0  0  0  0  0  0  0  0  0  0
   -3.1754   -8.2393   -2.2882 C   0  0  0  0  0  0  0  0  0  0  0  0
   -3.4109   -8.6897   -0.6517 Cl  0  0  0  0  0  0  0  0  0  0  0  0
   -5.7019   -9.1321   -2.9181 Cl  0  0  0  0  0  0  0  0  0  0  0  0
   -0.0988   -8.2988   -1.3837 C   0  0  0  0  0  0  0  0  0  0  0  0
   -0.5460   -9.9749   -1.2314 S   0  0  0  0  0  0  0  0  0  0  0  0
   -0.7654   -4.8783   -2.7442 C   0  0  0  0  0  0  0  0  0  0  0  0
    0.0407   -3.7843   -2.6182 C   0  0  0  0  0  0  0  0  0  0  0  0
    1.4948   -4.1323   -1.7128 S   0  0  0  0  0  0  0  0  0  0  0  0
   -0.2164   -2.4542   -3.0694 C   0  0  0  0  0  0  0  0  0  0  0  0
   -1.4105   -1.9367   -3.4805 C   0  0  0  0  0  0  0  0  0  0  0  0
   -1.3608   -0.5479   -3.7510 C   0  0  0  0  0  0  0  0  0  0  0  0
   -2.4246    0.3171   -4.0695 C   0  0  0  0  0  0  0  0  0  0  0  0
   -3.7819   -0.1676   -4.2478 C   0  0  0  0  0  0  0  0  0  0  0  0
   -4.5483   -1.2042   -3.0798 S   0  0  0  0  0  0  0  0  0  0  0  0
   -6.0242   -1.2674   -3.9810 C   0  0  0  0  0  0  0  0  0  0  0  0
   -7.1666   -2.1061   -3.5253 C   0  0  0  0  0  0  0  0  0  0  0  0
   -6.9439   -3.5755   -3.8915 C   0  0  0  0  0  0  0  0  0  0  0  0
   -5.9128   -0.5279   -5.1200 C   0  0  0  0  0  0  0  0  0  0  0  0
   -7.1665   -0.3612   -6.2793 Cl  0  0  0  0  0  0  0  0  0  0  0  0
   -4.6494    0.1053   -5.2698 C   0  0  0  0  0  0  0  0  0  0  0  0
   -4.2501    1.0389   -6.6497 Cl  0  0  0  0  0  0  0  0  0  0  0  0
   -2.1314    1.6733   -4.1323 C   0  0  0  0  0  0  0  0  0  0  0  0
   -0.8179    2.1863   -3.9829 C   0  0  0  0  0  0  0  0  0  0  0  0
    0.2605    1.3132   -3.7589 C   0  0  0  0  0  0  0  0  0  0  0  0
    1.6338    1.7801   -3.6646 C   0  0  0  0  0  0  0  0  0  0  0  0
    2.1268    3.0727   -2.6060 S   0  0  0  0  0  0  0  0  0  0  0  0
    3.7826    2.9557   -3.1023 C   0  0  0  0  0  0  0  0  0  0  0  0
    4.8175    3.8811   -2.5680 C   0  0  0  0  0  0  0  0  0  0  0  0
    4.6020    5.3081   -3.0747 C   0  0  0  0  0  0  0  0  0  0  0  0
    3.9268    1.9738   -4.0352 C   0  0  0  0  0  0  0  0  0  0  0  0
    2.7156    1.3021   -4.3522 C   0  0  0  0  0  0  0  0  0  0  0  0
    2.6361    0.0813   -5.5514 Cl  0  0  0  0  0  0  0  0  0  0  0  0
    5.4187    1.5636   -4.7768 Cl  0  0  0  0  0  0  0  0  0  0  0  0
   -0.0509   -0.0303   -3.5973 C   0  0  0  0  0  0  0  0  0  0  0  0
    1.0592   -1.2595   -3.0674 S   0  0  0  0  0  0  0  0  0  0  0  0
   -0.8057    3.5975   -3.9439 C   0  0  0  0  0  0  0  0  0  0  0  0
   -2.0535    4.1547   -3.9723 C   0  0  0  0  0  0  0  0  0  0  0  0
   -3.3037    2.9583   -4.2117 S   0  0  0  0  0  0  0  0  0  0  0  0
   -2.3521    5.4884   -3.5578 C   0  0  0  0  0  0  0  0  0  0  0  0
   -1.4363    6.4675   -3.2991 C   0  0  0  0  0  0  0  0  0  0  0  0
   -1.9292    7.4941   -2.4595 C   0  0  0  0  0  0  0  0  0  0  0  0
   -1.1663    8.4795   -1.8014 C   0  0  0  0  0  0  0  0  0  0  0  0
    0.1979    8.7197   -2.2279 C   0  0  0  0  0  0  0  0  0  0  0  0
    1.5364    8.7563   -1.1199 S   0  0  0  0  0  0  0  0  0  0  0  0
    2.6883    8.9629   -2.3953 C   0  0  0  0  0  0  0  0  0  0  0  0
    4.1487    9.0987   -2.1343 C   0  0  0  0  0  0  0  0  0  0  0  0
    4.6250   10.5363   -2.3563 C   0  0  0  0  0  0  0  0  0  0  0  0
    2.0546    9.0119   -3.6024 C   0  0  0  0  0  0  0  0  0  0  0  0
    2.8699    9.1880   -5.1017 Cl  0  0  0  0  0  0  0  0  0  0  0  0
    0.6463    8.8758   -3.5135 C   0  0  0  0  0  0  0  0  0  0  0  0
   -0.3770    8.9764   -4.8885 Cl  0  0  0  0  0  0  0  0  0  0  0  0
   -1.7579    9.1003   -0.7093 C   0  0  0  0  0  0  0  0  0  0  0  0
   -3.0879    8.8262   -0.3050 C   0  0  0  0  0  0  0  0  0  0  0  0
   -3.8869    7.9318   -1.0379 C   0  0  0  0  0  0  0  0  0  0  0  0
   -5.2375    7.5944   -0.6270 C   0  0  0  0  0  0  0  0  0  0  0  0
   -5.5924    7.1054    1.0042 S   0  0  0  0  0  0  0  0  0  0  0  0
   -7.2646    6.8311    0.6428 C   0  0  0  0  0  0  0  0  0  0  0  0
   -8.2181    6.4123    1.7068 C   0  0  0  0  0  0  0  0  0  0  0  0
   -8.4772    7.5526    2.6931 C   0  0  0  0  0  0  0  0  0  0  0  0
   -7.5150    7.1058   -0.6678 C   0  0  0  0  0  0  0  0  0  0  0  0
   -6.3669    7.5253   -1.3936 C   0  0  0  0  0  0  0  0  0  0  0  0
   -6.4324    7.9707   -3.0468 Cl  0  0  0  0  0  0  0  0  0  0  0  0
   -9.0598    6.9656   -1.4006 Cl  0  0  0  0  0  0  0  0  0  0  0  0
   -3.2803    7.2724   -2.0993 C   0  0  0  0  0  0  0  0  0  0  0  0
   -3.9342    5.8802   -2.9162 S   0  0  0  0  0  0  0  0  0  0  0  0
   -3.4264    9.5095    0.8872 C   0  0  0  0  0  0  0  0  0  0  0  0
   -2.4138   10.2663    1.3900 C   0  0  0  0  0  0  0  0  0  0  0  0
   -0.9848   10.2247    0.3753 S   0  0  0  0  0  0  0  0  0  0  0  0
   -2.4268   10.9224    2.6641 C   0  0  0  0  0  0  0  0  0  0  0  0
   -1.8278   12.1398    2.8364 O   0  0  0  0  0  0  0  0  0  0  0  0
   -2.0481   12.4347    4.1218 C   0  0  0  0  0  0  0  0  0  0  0  0
   -1.9005   13.3384    5.3131 C   0  0  0  0  0  0  0  0  0  0  0  0
   -2.6953   12.2333    6.0888 C   0  0  0  0  0  0  0  0  0  0  0  0
   -2.7485   11.4708    4.7784 C   0  0  0  0  0  0  0  0  0  0  0  0
   -3.0016   10.4380    3.8484 C   0  0  0  0  0  0  0  0  0  0  0  0
   -3.6369    9.1416    4.0412 C   0  0  0  0  0  0  0  0  0  0  0  0
   -3.0693    7.9549    3.7866 C   0  0  0  0  0  0  0  0  0  0  0  0
   -1.7175    7.7367    3.3387 C   0  0  0  0  0  0  0  0  0  0  0  0
   -1.2427    6.6492    2.6673 C   0  0  0  0  0  0  0  0  0  0  0  0
    0.1249    6.7499    2.2891 C   0  0  0  0  0  0  0  0  0  0  0  0
    0.9210    5.8836    1.5139 C   0  0  0  0  0  0  0  0  0  0  0  0
    0.4431    4.6211    0.9706 C   0  0  0  0  0  0  0  0  0  0  0  0
    1.4209    3.1820    1.1074 S   0  0  0  0  0  0  0  0  0  0  0  0
    0.2780    2.2085    0.2484 C   0  0  0  0  0  0  0  0  0  0  0  0
    0.5368    0.7698   -0.0337 C   0  0  0  0  0  0  0  0  0  0  0  0
    0.8141   -0.0313    1.2365 C   0  0  0  0  0  0  0  0  0  0  0  0
   -0.7999    2.9623   -0.1038 C   0  0  0  0  0  0  0  0  0  0  0  0
   -2.1594    2.3515   -0.9553 Cl  0  0  0  0  0  0  0  0  0  0  0  0
   -0.7098    4.3225    0.2988 C   0  0  0  0  0  0  0  0  0  0  0  0
   -1.9159    5.4623   -0.1297 Cl  0  0  0  0  0  0  0  0  0  0  0  0
    2.2391    6.2823    1.2911 C   0  0  0  0  0  0  0  0  0  0  0  0
    2.8051    7.4665    1.8155 C   0  0  0  0  0  0  0  0  0  0  0  0
    2.0188    8.3161    2.6022 C   0  0  0  0  0  0  0  0  0  0  0  0
    2.5340    9.5427    3.1909 C   0  0  0  0  0  0  0  0  0  0  0  0
    2.4447    9.8103    4.9063 S   0  0  0  0  0  0  0  0  0  0  0  0
    3.1803   11.3720    4.7797 C   0  0  0  0  0  0  0  0  0  0  0  0
    3.3656   12.2336    5.9796 C   0  0  0  0  0  0  0  0  0  0  0  0
    2.0589   12.9452    6.3378 C   0  0  0  0  0  0  0  0  0  0  0  0
    3.4602   11.6600    3.4778 C   0  0  0  0  0  0  0  0  0  0  0  0
    3.1004   10.6219    2.5764 C   0  0  0  0  0  0  0  0  0  0  0  0
    3.2947   10.7644    0.8833 Cl  0  0  0  0  0  0  0  0  0  0  0  0
    4.1825   13.1251    2.9510 Cl  0  0  0  0  0  0  0  0  0  0  0  0
    0.7009    7.9374    2.8049 C   0  0  0  0  0  0  0  0  0  0  0  0
   -0.4532    8.8994    3.6682 S   0  0  0  0  0  0  0  0  0  0  0  0
    4.1736    7.6182    1.4468 C   0  0  0  0  0  0  0  0  0  0  0  0
    4.6101    6.6221    0.6506 C   0  0  0  0  0  0  0  0  0  0  0  0
    3.4019    5.4298    0.3152 S   0  0  0  0  0  0  0  0  0  0  0  0
    2.3347  -19.0097    3.1056 H   0  0  0  0  0  0  0  0  0  0  0  0
    3.8747  -16.9230    3.3408 H   0  0  0  0  0  0  0  0  0  0  0  0
    8.3676  -15.1997    3.0391 H   0  0  0  0  0  0  0  0  0  0  0  0
    8.4917  -13.8582    4.1943 H   0  0  0  0  0  0  0  0  0  0  0  0
    8.5571  -12.2361    2.3062 H   0  0  0  0  0  0  0  0  0  0  0  0
    9.8645  -13.4165    2.1684 H   0  0  0  0  0  0  0  0  0  0  0  0
    8.4280  -13.5649    1.1497 H   0  0  0  0  0  0  0  0  0  0  0  0
   -4.7079  -16.3974   -2.0518 H   0  0  0  0  0  0  0  0  0  0  0  0
   -3.3726  -15.9962   -3.1488 H   0  0  0  0  0  0  0  0  0  0  0  0
   -5.0018  -13.9705   -1.5381 H   0  0  0  0  0  0  0  0  0  0  0  0
   -5.1579  -14.2731   -3.2709 H   0  0  0  0  0  0  0  0  0  0  0  0
   -3.6677  -13.5753   -2.6264 H   0  0  0  0  0  0  0  0  0  0  0  0
   -0.6564  -12.6777   -0.2367 H   0  0  0  0  0  0  0  0  0  0  0  0
    2.5335   -9.1933    0.5161 H   0  0  0  0  0  0  0  0  0  0  0  0
    7.2295   -7.0986    0.2188 H   0  0  0  0  0  0  0  0  0  0  0  0
    7.1612   -6.0690    1.6615 H   0  0  0  0  0  0  0  0  0  0  0  0
    7.7234   -8.4234    2.2589 H   0  0  0  0  0  0  0  0  0  0  0  0
    6.2223   -8.9809    1.5106 H   0  0  0  0  0  0  0  0  0  0  0  0
    6.1664   -7.9634    2.9530 H   0  0  0  0  0  0  0  0  0  0  0  0
   -5.3799   -8.7100   -5.7183 H   0  0  0  0  0  0  0  0  0  0  0  0
   -4.0231   -7.9946   -6.6106 H   0  0  0  0  0  0  0  0  0  0  0  0
   -6.0917   -6.4382   -4.9820 H   0  0  0  0  0  0  0  0  0  0  0  0
   -6.0295   -6.5381   -6.7445 H   0  0  0  0  0  0  0  0  0  0  0  0
   -4.7357   -5.7221   -5.8605 H   0  0  0  0  0  0  0  0  0  0  0  0
   -1.7023   -4.8565   -3.2679 H   0  0  0  0  0  0  0  0  0  0  0  0
   -2.3065   -2.5238   -3.5480 H   0  0  0  0  0  0  0  0  0  0  0  0
   -7.2761   -2.0151   -2.4431 H   0  0  0  0  0  0  0  0  0  0  0  0
   -8.0786   -1.7429   -4.0019 H   0  0  0  0  0  0  0  0  0  0  0  0
   -6.8434   -3.6842   -4.9686 H   0  0  0  0  0  0  0  0  0  0  0  0
   -7.7864   -4.1749   -3.5573 H   0  0  0  0  0  0  0  0  0  0  0  0
   -6.0393   -3.9487   -3.4166 H   0  0  0  0  0  0  0  0  0  0  0  0
    4.7787    3.8786   -1.4765 H   0  0  0  0  0  0  0  0  0  0  0  0
    5.7967    3.5189   -2.8854 H   0  0  0  0  0  0  0  0  0  0  0  0
    5.3895    5.9563   -2.7002 H   0  0  0  0  0  0  0  0  0  0  0  0
    3.6435    5.6900   -2.7310 H   0  0  0  0  0  0  0  0  0  0  0  0
    4.6196    5.3320   -4.1616 H   0  0  0  0  0  0  0  0  0  0  0  0
    0.0873    4.1751   -3.8010 H   0  0  0  0  0  0  0  0  0  0  0  0
   -0.4103    6.4059   -3.6101 H   0  0  0  0  0  0  0  0  0  0  0  0
    4.3585    8.7925   -1.1089 H   0  0  0  0  0  0  0  0  0  0  0  0
    4.6887    8.4365   -2.8157 H   0  0  0  0  0  0  0  0  0  0  0  0
    4.4597   10.8360   -3.3872 H   0  0  0  0  0  0  0  0  0  0  0  0
    5.6867   10.6121   -2.1370 H   0  0  0  0  0  0  0  0  0  0  0  0
    4.0870   11.2215   -1.7072 H   0  0  0  0  0  0  0  0  0  0  0  0
   -9.1539    6.1106    1.2342 H   0  0  0  0  0  0  0  0  0  0  0  0
   -7.8082    5.5554    2.2461 H   0  0  0  0  0  0  0  0  0  0  0  0
   -8.8995    8.4103    2.1757 H   0  0  0  0  0  0  0  0  0  0  0  0
   -9.1748    7.2316    3.4619 H   0  0  0  0  0  0  0  0  0  0  0  0
   -7.5470    7.8562    3.1682 H   0  0  0  0  0  0  0  0  0  0  0  0
   -4.3862    9.4434    1.3637 H   0  0  0  0  0  0  0  0  0  0  0  0
   -2.4094   14.2972    5.2321 H   0  0  0  0  0  0  0  0  0  0  0  0
   -0.8792   13.4940    5.6542 H   0  0  0  0  0  0  0  0  0  0  0  0
   -3.6611   12.5541    6.4718 H   0  0  0  0  0  0  0  0  0  0  0  0
   -2.1292   11.7413    6.8759 H   0  0  0  0  0  0  0  0  0  0  0  0
   -4.6439    9.1680    4.4373 H   0  0  0  0  0  0  0  0  0  0  0  0
   -3.6577    7.0545    3.9042 H   0  0  0  0  0  0  0  0  0  0  0  0
   -1.8672    5.8088    2.4296 H   0  0  0  0  0  0  0  0  0  0  0  0
   -0.3325    0.3612   -0.5526 H   0  0  0  0  0  0  0  0  0  0  0  0
    1.4002    0.6871   -0.7001 H   0  0  0  0  0  0  0  0  0  0  0  0
   -0.0410    0.0089    1.9068 H   0  0  0  0  0  0  0  0  0  0  0  0
    1.0104   -1.0697    0.9837 H   0  0  0  0  0  0  0  0  0  0  0  0
    1.6811    0.3722    1.7541 H   0  0  0  0  0  0  0  0  0  0  0  0
    3.6873   11.6198    6.8227 H   0  0  0  0  0  0  0  0  0  0  0  0
    4.1407   12.9716    5.7665 H   0  0  0  0  0  0  0  0  0  0  0  0
    1.7377   13.5721    5.5092 H   0  0  0  0  0  0  0  0  0  0  0  0
    1.2821   12.2130    6.5471 H   0  0  0  0  0  0  0  0  0  0  0  0
    2.1996   13.5704    7.2156 H   0  0  0  0  0  0  0  0  0  0  0  0
    4.7847    8.4387    1.7751 H   0  0  0  0  0  0  0  0  0  0  0  0
    5.5890    6.4921    0.2318 H   0  0  0  0  0  0  0  0  0  0  0  0
  1  2  2  0  0  0  0
  2  3  1  0  0  0  0
  3  4  2  0  0  0  0
  4  5  1  0  0  0  0
  5  6  1  0  0  0  0
  6  7  1  0  0  0  0
  7  8  1  0  0  0  0
  8  9  1  0  0  0  0
  7 10  2  0  0  0  0
 10 11  1  0  0  0  0
 10 12  1  0  0  0  0
 12 13  1  0  0  0  0
  4 14  1  0  0  0  0
 14 15  2  0  0  0  0
 15 16  1  0  0  0  0
 16 17  1  0  0  0  0
 17 18  1  0  0  0  0
 18 19  1  0  0  0  0
 19 20  1  0  0  0  0
 20 21  1  0  0  0  0
 19 22  2  0  0  0  0
 22 23  1  0  0  0  0
 23 24  1  0  0  0  0
 22 25  1  0  0  0  0
 16 26  2  0  0  0  0
 26 27  1  0  0  0  0
 15 28  1  0  0  0  0
 28 29  2  0  0  0  0
 29 30  1  0  0  0  0
 29 31  1  0  0  0  0
 31 32  2  0  0  0  0
 32 33  1  0  0  0  0
 33 34  2  0  0  0  0
 34 35  1  0  0  0  0
 35 36  1  0  0  0  0
 36 37  1  0  0  0  0
 37 38  1  0  0  0  0
 38 39  1  0  0  0  0
 37 40  2  0  0  0  0
 40 41  1  0  0  0  0
 40 42  1  0  0  0  0
 42 43  1  0  0  0  0
 34 44  1  0  0  0  0
 44 45  2  0  0  0  0
 45 46  1  0  0  0  0
 46 47  1  0  0  0  0
 47 48  1  0  0  0  0
 48 49  1  0  0  0  0
 49 50  1  0  0  0  0
 50 51  1  0  0  0  0
 49 52  2  0  0  0  0
 52 53  1  0  0  0  0
 53 54  1  0  0  0  0
 52 55  1  0  0  0  0
 46 56  2  0  0  0  0
 56 57  1  0  0  0  0
 45 58  1  0  0  0  0
 58 59  2  0  0  0  0
 59 60  1  0  0  0  0
 59 61  1  0  0  0  0
 61 62  2  0  0  0  0
 62 63  1  0  0  0  0
 63 64  2  0  0  0  0
 64 65  1  0  0  0  0
 65 66  1  0  0  0  0
 66 67  1  0  0  0  0
 67 68  1  0  0  0  0
 68 69  1  0  0  0  0
 67 70  2  0  0  0  0
 70 71  1  0  0  0  0
 70 72  1  0  0  0  0
 72 73  1  0  0  0  0
 64 74  1  0  0  0  0
 74 75  2  0  0  0  0
 75 76  1  0  0  0  0
 76 77  1  0  0  0  0
 77 78  1  0  0  0  0
 78 79  1  0  0  0  0
 79 80  1  0  0  0  0
 80 81  1  0  0  0  0
 79 82  2  0  0  0  0
 82 83  1  0  0  0  0
 83 84  1  0  0  0  0
 82 85  1  0  0  0  0
 76 86  2  0  0  0  0
 86 87  1  0  0  0  0
 75 88  1  0  0  0  0
 88 89  2  0  0  0  0
 89 90  1  0  0  0  0
 89 91  1  0  0  0  0
 91 92  2  0  0  0  0
 92 93  1  0  0  0  0
 93 94  2  0  0  0  0
 94 95  1  0  0  0  0
 95 96  1  0  0  0  0
 96 97  1  0  0  0  0
 97 98  1  0  0  0  0
 98 99  1  0  0  0  0
 97100  2  0  0  0  0
100101  1  0  0  0  0
100102  1  0  0  0  0
102103  1  0  0  0  0
 94104  1  0  0  0  0
104105  2  0  0  0  0
105106  1  0  0  0  0
106107  1  0  0  0  0
107108  1  0  0  0  0
108109  1  0  0  0  0
109110  1  0  0  0  0
110111  1  0  0  0  0
109112  2  0  0  0  0
112113  1  0  0  0  0
113114  1  0  0  0  0
112115  1  0  0  0  0
106116  2  0  0  0  0
116117  1  0  0  0  0
105118  1  0  0  0  0
118119  2  0  0  0  0
119120  1  0  0  0  0
119121  1  0  0  0  0
121122  1  0  0  0  0
122123  1  0  0  0  0
123124  1  0  0  0  0
124125  1  0  0  0  0
125126  1  0  0  0  0
126127  1  0  0  0  0
127128  1  0  0  0  0
128129  2  0  0  0  0
129130  1  0  0  0  0
130131  2  0  0  0  0
131132  1  0  0  0  0
132133  2  0  0  0  0
133134  1  0  0  0  0
134135  1  0  0  0  0
135136  1  0  0  0  0
136137  1  0  0  0  0
137138  1  0  0  0  0
136139  2  0  0  0  0
139140  1  0  0  0  0
139141  1  0  0  0  0
141142  1  0  0  0  0
133143  1  0  0  0  0
143144  2  0  0  0  0
144145  1  0  0  0  0
145146  1  0  0  0  0
146147  1  0  0  0  0
147148  1  0  0  0  0
148149  1  0  0  0  0
149150  1  0  0  0  0
148151  2  0  0  0  0
151152  1  0  0  0  0
152153  1  0  0  0  0
151154  1  0  0  0  0
145155  2  0  0  0  0
155156  1  0  0  0  0
144157  1  0  0  0  0
157158  2  0  0  0  0
158159  1  0  0  0  0
 27  1  1  0  0  0  0
 57 31  1  0  0  0  0
 87 61  1  0  0  0  0
117 91  1  0  0  0  0
127121  2  0  0  0  0
156130  1  0  0  0  0
 26  3  1  0  0  0  0
 56 33  1  0  0  0  0
 86 63  1  0  0  0  0
116 93  1  0  0  0  0
126123  2  0  0  0  0
155132  1  0  0  0  0
 12  5  2  0  0  0  0
 30 14  1  0  0  0  0
 42 35  2  0  0  0  0
 60 44  1  0  0  0  0
 72 65  2  0  0  0  0
 90 74  1  0  0  0  0
102 95  2  0  0  0  0
120104  1  0  0  0  0
141134  2  0  0  0  0
159143  1  0  0  0  0
 23 17  2  0  0  0  0
 53 47  2  0  0  0  0
 83 77  2  0  0  0  0
113107  2  0  0  0  0
152146  2  0  0  0  0
  1160  1  0  0  0  0
  2161  1  0  0  0  0
  8162  1  0  0  0  0
  8163  1  0  0  0  0
  9164  1  0  0  0  0
  9165  1  0  0  0  0
  9166  1  0  0  0  0
 20167  1  0  0  0  0
 20168  1  0  0  0  0
 21169  1  0  0  0  0
 21170  1  0  0  0  0
 21171  1  0  0  0  0
 28172  1  0  0  0  0
 32173  1  0  0  0  0
 38174  1  0  0  0  0
 38175  1  0  0  0  0
 39176  1  0  0  0  0
 39177  1  0  0  0  0
 39178  1  0  0  0  0
 50179  1  0  0  0  0
 50180  1  0  0  0  0
 51181  1  0  0  0  0
 51182  1  0  0  0  0
 51183  1  0  0  0  0
 58184  1  0  0  0  0
 62185  1  0  0  0  0
 68186  1  0  0  0  0
 68187  1  0  0  0  0
 69188  1  0  0  0  0
 69189  1  0  0  0  0
 69190  1  0  0  0  0
 80191  1  0  0  0  0
 80192  1  0  0  0  0
 81193  1  0  0  0  0
 81194  1  0  0  0  0
 81195  1  0  0  0  0
 88196  1  0  0  0  0
 92197  1  0  0  0  0
 98198  1  0  0  0  0
 98199  1  0  0  0  0
 99200  1  0  0  0  0
 99201  1  0  0  0  0
 99202  1  0  0  0  0
110203  1  0  0  0  0
110204  1  0  0  0  0
111205  1  0  0  0  0
111206  1  0  0  0  0
111207  1  0  0  0  0
118208  1  0  0  0  0
124209  1  0  0  0  0
124210  1  0  0  0  0
125211  1  0  0  0  0
125212  1  0  0  0  0
128213  1  0  0  0  0
129214  1  0  0  0  0
131215  1  0  0  0  0
137216  1  0  0  0  0
137217  1  0  0  0  0
138218  1  0  0  0  0
138219  1  0  0  0  0
138220  1  0  0  0  0
149221  1  0  0  0  0
149222  1  0  0  0  0
150223  1  0  0  0  0
150224  1  0  0  0  0
150225  1  0  0  0  0
157226  1  0  0  0  0
158227  1  0  0  0  0
M  END
