227

C          2.14050      -18.02240        2.73440
C          2.92210      -16.92860        2.84410
C          2.35060      -15.77810        2.22720
C          2.88800      -14.48600        2.12670
C          4.18890      -14.13900        2.67850
S          5.62680      -15.01210        2.23680
C          6.64170      -13.98010        3.18480
C          8.12060      -14.15090        3.21000
C          8.78640      -13.28510        2.13740
C          5.89610      -13.01860        3.79820
Cl         6.55440      -11.80590        4.81780
C          4.50610      -13.10780        3.51880
Cl         3.35760      -12.06430        4.24640
C          2.13250      -13.54100        1.44370
C          0.86600      -13.82530        0.87700
C          0.31500      -15.11080        1.00380
C         -0.98750      -15.42770        0.44090
S         -1.34290      -15.11940       -1.23390
C         -2.95550      -15.72980       -1.08790
C         -3.89660      -15.69250       -2.24060
C         -4.46820      -14.28530       -2.43130
C         -3.19110      -16.13910        0.19030
C         -2.07710      -15.97610        1.05810
Cl        -2.15410      -16.35110        2.72810
Cl        -4.68280      -16.79550        0.72710
C          1.07900      -16.06120        1.67190
S          0.65800      -17.73500        1.89440
C          0.30950      -12.69050        0.23440
C          1.11610      -11.59380        0.27690
S          2.61640      -11.90150        1.12590
C          0.86870      -10.29380       -0.25230
C          1.63500       -9.18150       -0.07310
C          1.12490       -8.03130       -0.72010
C          1.68170       -6.74110       -0.75200
C          2.92830       -6.44880       -0.06380
S          4.34730       -7.42200       -0.32050
C          5.28200       -6.50510        0.81100
C          6.67940       -6.89790        1.14050
C          6.69890       -8.14830        2.02340
C          4.52700       -5.50380        1.34380
Cl         5.10140       -4.38400        2.51070
C          3.19560       -5.46420        0.84680
Cl         2.03900       -4.34450        1.43130
C          0.98640       -5.77530       -1.46690
C         -0.24360       -6.03770       -2.12180
C         -0.80490       -7.32710       -2.08130
C         -2.04900       -7.63100       -2.76930
S         -2.25060       -7.25640       -4.45740
C         -3.84440       -7.92820       -4.50070
C         -4.66980       -7.88140       -5.73900
C         -5.43170       -6.55740       -5.83740
C         -4.19030       -8.40020       -3.27010
C         -3.17540       -8.23930       -2.28820
Cl        -3.41090       -8.68970       -0.65170
Cl        -5.70190       -9.13210       -2.91810
C         -0.09880       -8.29880       -1.38370
S         -0.54600       -9.97490       -1.23140
C         -0.76540       -4.87830       -2.74420
C          0.04070       -3.78430       -2.61820
S          1.49480       -4.13230       -1.71280
C         -0.21640       -2.45420       -3.06940
C         -1.41050       -1.93670       -3.48050
C         -1.36080       -0.54790       -3.75100
C         -2.42460        0.31710       -4.06950
C         -3.78190       -0.16760       -4.24780
S         -4.54830       -1.20420       -3.07980
C         -6.02420       -1.26740       -3.98100
C         -7.16660       -2.10610       -3.52530
C         -6.94390       -3.57550       -3.89150
C         -5.91280       -0.52790       -5.12000
Cl        -7.16650       -0.36120       -6.27930
C         -4.64940        0.10530       -5.26980
Cl        -4.25010        1.03890       -6.64970
C         -2.13140        1.67330       -4.13230
C         -0.81790        2.18630       -3.98290
C          0.26050        1.31320       -3.75890
C          1.63380        1.78010       -3.66460
S          2.12680        3.07270       -2.60600
C          3.78260        2.95570       -3.10230
C          4.81750        3.88110       -2.56800
C          4.60200        5.30810       -3.07470
C          3.92680        1.97380       -4.03520
C          2.71560        1.30210       -4.35220
Cl         2.63610        0.08130       -5.55140
Cl         5.41870        1.56360       -4.77680
C         -0.05090       -0.03030       -3.59730
S          1.05920       -1.25950       -3.06740
C         -0.80570        3.59750       -3.94390
C         -2.05350        4.15470       -3.97230
S         -3.30370        2.95830       -4.21170
C         -2.35210        5.48840       -3.55780
C         -1.43630        6.46750       -3.29910
C         -1.92920        7.49410       -2.45950
C         -1.16630        8.47950       -1.80140
C          0.19790        8.71970       -2.22790
S          1.53640        8.75630       -1.11990
C          2.68830        8.96290       -2.39530
C          4.14870        9.09870       -2.13430
C          4.62500       10.53630       -2.35630
C          2.05460        9.01190       -3.60240
Cl         2.86990        9.18800       -5.10170
C          0.64630        8.87580       -3.51350
Cl        -0.37700        8.97640       -4.88850
C         -1.75790        9.10030       -0.70930
C         -3.08790        8.82620       -0.30500
C         -3.88690        7.93180       -1.03790
C         -5.23750        7.59440       -0.62700
S         -5.59240        7.10540        1.00420
C         -7.26460        6.83110        0.64280
C         -8.21810        6.41230        1.70680
C         -8.47720        7.55260        2.69310
C         -7.51500        7.10580       -0.66780
C         -6.36690        7.52530       -1.39360
Cl        -6.43240        7.97070       -3.04680
Cl        -9.05980        6.96560       -1.40060
C         -3.28030        7.27240       -2.09930
S         -3.93420        5.88020       -2.91620
C         -3.42640        9.50950        0.88720
C         -2.41380       10.26630        1.39000
S         -0.98480       10.22470        0.37530
C         -2.42680       10.92240        2.66410
O         -1.82780       12.13980        2.83640
C         -2.04810       12.43470        4.12180
C         -1.90050       13.33840        5.31310
C         -2.69530       12.23330        6.08880
C         -2.74850       11.47080        4.77840
C         -3.00160       10.43800        3.84840
C         -3.63690        9.14160        4.04120
C         -3.06930        7.95490        3.78660
C         -1.71750        7.73670        3.33870
C         -1.24270        6.64920        2.66730
C          0.12490        6.74990        2.28910
C          0.92100        5.88360        1.51390
C          0.44310        4.62110        0.97060
S          1.42090        3.18200        1.10740
C          0.27800        2.20850        0.24840
C          0.53680        0.76980       -0.03370
C          0.81410       -0.03130        1.23650
C         -0.79990        2.96230       -0.10380
Cl        -2.15940        2.35150       -0.95530
C         -0.70980        4.32250        0.29880
Cl        -1.91590        5.46230       -0.12970
C          2.23910        6.28230        1.29110
C          2.80510        7.46650        1.81550
C          2.01880        8.31610        2.60220
C          2.53400        9.54270        3.19090
S          2.44470        9.81030        4.90630
C          3.18030       11.37200        4.77970
C          3.36560       12.23360        5.97960
C          2.05890       12.94520        6.33780
C          3.46020       11.66000        3.47780
C          3.10040       10.62190        2.57640
Cl         3.29470       10.76440        0.88330
Cl         4.18250       13.12510        2.95100
C          0.70090        7.93740        2.80490
S         -0.45320        8.89940        3.66820
C          4.17360        7.61820        1.44680
C          4.61010        6.62210        0.65060
S          3.40190        5.42980        0.31520
H          2.33470      -19.00970        3.10560
H          3.87470      -16.92300        3.34080
H          8.36760      -15.19970        3.03910
H          8.49170      -13.85820        4.19430
H          8.55710      -12.23610        2.30620
H          9.86450      -13.41650        2.16840
H          8.42800      -13.56490        1.14970
H         -4.70790      -16.39740       -2.05180
H         -3.37260      -15.99620       -3.14880
H         -5.00180      -13.97050       -1.53810
H         -5.15790      -14.27310       -3.27090
H         -3.66770      -13.57530       -2.62640
H         -0.65640      -12.67770       -0.23670
H          2.53350       -9.19330        0.51610
H          7.22950       -7.09860        0.21880
H          7.16120       -6.06900        1.66150
H          7.72340       -8.42340        2.25890
H          6.22230       -8.98090        1.51060
H          6.16640       -7.96340        2.95300
H         -5.37990       -8.71000       -5.71830
H         -4.02310       -7.99460       -6.61060
H         -6.09170       -6.43820       -4.98200
H         -6.02950       -6.53810       -6.74450
H         -4.73570       -5.72210       -5.86050
H         -1.70230       -4.85650       -3.26790
H         -2.30650       -2.52380       -3.54800
H         -7.27610       -2.01510       -2.44310
H         -8.07860       -1.74290       -4.00190
H         -6.84340       -3.68420       -4.96860
H         -7.78640       -4.17490       -3.55730
H         -6.03930       -3.94870       -3.41660
H          4.77870        3.87860       -1.47650
H          5.79670        3.51890       -2.88540
H          5.38950        5.95630       -2.70020
H          3.64350        5.69000       -2.73100
H          4.61960        5.33200       -4.16160
H          0.08730        4.17510       -3.80100
H         -0.41030        6.40590       -3.61010
H          4.35850        8.79250       -1.10890
H          4.68870        8.43650       -2.81570
H          4.45970       10.83600       -3.38720
H          5.68670       10.61210       -2.13700
H          4.08700       11.22150       -1.70720
H         -9.15390        6.11060        1.23420
H         -7.80820        5.55540        2.24610
H         -8.89950        8.41030        2.17570
H         -9.17480        7.23160        3.46190
H         -7.54700        7.85620        3.16820
H         -4.38620        9.44340        1.36370
H         -2.40940       14.29720        5.23210
H         -0.87920       13.49400        5.65420
H         -3.66110       12.55410        6.47180
H         -2.12920       11.74130        6.87590
H         -4.64390        9.16800        4.43730
H         -3.65770        7.05450        3.90420
H         -1.86720        5.80880        2.42960
H         -0.33250        0.36120       -0.55260
H          1.40020        0.68710       -0.70010
H         -0.04100        0.00890        1.90680
H          1.01040       -1.06970        0.98370
H          1.68110        0.37220        1.75410
H          3.68730       11.61980        6.82270
H          4.14070       12.97160        5.76650
H          1.73770       13.57210        5.50920
H          1.28210       12.21300        6.54710
H          2.19960       13.57040        7.21560
H          4.78470        8.43870        1.77510
H          5.58900        6.49210        0.23180
