
  xtb     03022215233D
 energy: -440.298797689634 gnorm: 0.000344076326 xtb: 6.4.1 (unknown)
222247  0     0  0            999 V2000
    6.7294   -7.8967    9.6098 C   0  0  0  0  0  0  0  0  0  0  0  0
    6.4149   -6.6055    9.3824 C   0  0  0  0  0  0  0  0  0  0  0  0
    5.7031   -6.4165    8.1618 C   0  0  0  0  0  0  0  0  0  0  0  0
    5.2409   -5.2169    7.5976 C   0  0  0  0  0  0  0  0  0  0  0  0
    5.3642   -3.9482    8.2968 C   0  0  0  0  0  0  0  0  0  0  0  0
    6.0799   -2.5587    7.5360 S   0  0  0  0  0  0  0  0  0  0  0  0
    5.8215   -1.5660    8.9292 C   0  0  0  0  0  0  0  0  0  0  0  0
    6.2845   -0.1515    8.9643 C   0  0  0  0  0  0  0  0  0  0  0  0
    7.7587   -0.0659    9.3666 C   0  0  0  0  0  0  0  0  0  0  0  0
    5.2196   -2.2846    9.9188 C   0  0  0  0  0  0  0  0  0  0  0  0
    4.8002   -1.6381   11.4525 Cl  0  0  0  0  0  0  0  0  0  0  0  0
    4.9540   -3.6339    9.5627 C   0  0  0  0  0  0  0  0  0  0  0  0
    4.1238   -4.7177   10.6038 Cl  0  0  0  0  0  0  0  0  0  0  0  0
    4.6464   -5.2972    6.3452 C   0  0  0  0  0  0  0  0  0  0  0  0
    4.4685   -6.5187    5.6514 C   0  0  0  0  0  0  0  0  0  0  0  0
    4.9221   -7.7202    6.2203 C   0  0  0  0  0  0  0  0  0  0  0  0
    4.7827   -8.9837    5.5164 C   0  0  0  0  0  0  0  0  0  0  0  0
    4.0313  -10.3614    6.2642 S   0  0  0  0  0  0  0  0  0  0  0  0
    4.2562  -11.3446    4.8587 C   0  0  0  0  0  0  0  0  0  0  0  0
    3.7458  -12.7421    4.8040 C   0  0  0  0  0  0  0  0  0  0  0  0
    2.2743  -12.7708    4.3831 C   0  0  0  0  0  0  0  0  0  0  0  0
    4.8762  -10.6324    3.8755 C   0  0  0  0  0  0  0  0  0  0  0  0
    5.1799   -9.2949    4.2451 C   0  0  0  0  0  0  0  0  0  0  0  0
    6.0341   -8.2232    3.2108 Cl  0  0  0  0  0  0  0  0  0  0  0  0
    5.2713  -11.2732    2.3335 Cl  0  0  0  0  0  0  0  0  0  0  0  0
    5.5190   -7.6383    7.4724 C   0  0  0  0  0  0  0  0  0  0  0  0
    6.1974   -8.9717    8.3633 S   0  0  0  0  0  0  0  0  0  0  0  0
    3.7822   -6.3330    4.4253 C   0  0  0  0  0  0  0  0  0  0  0  0
    3.4627   -5.0330    4.1735 C   0  0  0  0  0  0  0  0  0  0  0  0
    3.9799   -3.9571    5.4565 S   0  0  0  0  0  0  0  0  0  0  0  0
    2.8027   -4.5042    3.0260 C   0  0  0  0  0  0  0  0  0  0  0  0
    2.3726   -3.2252    2.8323 C   0  0  0  0  0  0  0  0  0  0  0  0
    1.7767   -3.0150    1.5662 C   0  0  0  0  0  0  0  0  0  0  0  0
    1.2560   -1.8233    1.0326 C   0  0  0  0  0  0  0  0  0  0  0  0
    1.2992   -0.5582    1.7468 C   0  0  0  0  0  0  0  0  0  0  0  0
   -0.1440    0.4156    1.8552 S   0  0  0  0  0  0  0  0  0  0  0  0
    0.6407    1.6337    2.7961 C   0  0  0  0  0  0  0  0  0  0  0  0
   -0.1236    2.7801    3.3570 C   0  0  0  0  0  0  0  0  0  0  0  0
   -0.7500    2.4027    4.7015 C   0  0  0  0  0  0  0  0  0  0  0  0
    1.9467    1.3017    2.9925 C   0  0  0  0  0  0  0  0  0  0  0  0
    3.0582    2.2637    3.8744 Cl  0  0  0  0  0  0  0  0  0  0  0  0
    2.3268    0.0652    2.4022 C   0  0  0  0  0  0  0  0  0  0  0  0
    3.9437   -0.4960    2.5070 Cl  0  0  0  0  0  0  0  0  0  0  0  0
    0.6722   -1.9133   -0.2248 C   0  0  0  0  0  0  0  0  0  0  0  0
    0.6183   -3.1024   -0.9888 C   0  0  0  0  0  0  0  0  0  0  0  0
    1.1510   -4.2885   -0.4576 C   0  0  0  0  0  0  0  0  0  0  0  0
    1.0867   -5.5387   -1.1979 C   0  0  0  0  0  0  0  0  0  0  0  0
    1.7379   -5.6840   -2.8024 S   0  0  0  0  0  0  0  0  0  0  0  0
    1.2655   -7.3437   -2.9306 C   0  0  0  0  0  0  0  0  0  0  0  0
    1.4994   -8.1104   -4.1849 C   0  0  0  0  0  0  0  0  0  0  0  0
    0.5116   -7.6889   -5.2755 C   0  0  0  0  0  0  0  0  0  0  0  0
    0.6361   -7.7453   -1.7907 C   0  0  0  0  0  0  0  0  0  0  0  0
    0.5361   -6.7265   -0.8055 C   0  0  0  0  0  0  0  0  0  0  0  0
   -0.2837   -6.9604    0.6814 Cl  0  0  0  0  0  0  0  0  0  0  0  0
    0.0142   -9.3257   -1.5410 Cl  0  0  0  0  0  0  0  0  0  0  0  0
    1.7223   -4.2119    0.8057 C   0  0  0  0  0  0  0  0  0  0  0  0
    2.4720   -5.5341    1.6508 S   0  0  0  0  0  0  0  0  0  0  0  0
   -0.0162   -2.9078   -2.2442 C   0  0  0  0  0  0  0  0  0  0  0  0
   -0.4101   -1.6220   -2.4521 C   0  0  0  0  0  0  0  0  0  0  0  0
   -0.0511   -0.5922   -1.0815 S   0  0  0  0  0  0  0  0  0  0  0  0
   -1.0893   -1.0164   -3.5511 C   0  0  0  0  0  0  0  0  0  0  0  0
   -1.8102   -1.5767   -4.5635 C   0  0  0  0  0  0  0  0  0  0  0  0
   -2.5122   -0.6211   -5.3450 C   0  0  0  0  0  0  0  0  0  0  0  0
   -3.5691   -0.8573   -6.2539 C   0  0  0  0  0  0  0  0  0  0  0  0
   -3.8030   -2.1956   -6.7501 C   0  0  0  0  0  0  0  0  0  0  0  0
   -5.3829   -2.9184   -6.8001 S   0  0  0  0  0  0  0  0  0  0  0  0
   -4.7674   -4.4103   -7.4232 C   0  0  0  0  0  0  0  0  0  0  0  0
   -5.6791   -5.5360   -7.7653 C   0  0  0  0  0  0  0  0  0  0  0  0
   -6.2832   -5.3419   -9.1581 C   0  0  0  0  0  0  0  0  0  0  0  0
   -3.4163   -4.3343   -7.5926 C   0  0  0  0  0  0  0  0  0  0  0  0
   -2.4523   -5.6184   -8.2012 Cl  0  0  0  0  0  0  0  0  0  0  0  0
   -2.8650   -3.0855   -7.2077 C   0  0  0  0  0  0  0  0  0  0  0  0
   -1.1974   -2.7253   -7.3990 Cl  0  0  0  0  0  0  0  0  0  0  0  0
   -4.4209    0.2171   -6.4887 C   0  0  0  0  0  0  0  0  0  0  0  0
   -4.1311    1.5421   -6.0684 C   0  0  0  0  0  0  0  0  0  0  0  0
   -2.9468    1.8151   -5.3622 C   0  0  0  0  0  0  0  0  0  0  0  0
   -2.4942    3.1248   -4.9338 C   0  0  0  0  0  0  0  0  0  0  0  0
   -3.5119    4.3303   -4.2009 S   0  0  0  0  0  0  0  0  0  0  0  0
   -2.1840    5.4047   -3.9124 C   0  0  0  0  0  0  0  0  0  0  0  0
   -2.3640    6.7675   -3.3424 C   0  0  0  0  0  0  0  0  0  0  0  0
   -2.6140    7.7957   -4.4479 C   0  0  0  0  0  0  0  0  0  0  0  0
   -1.0252    4.8472   -4.3629 C   0  0  0  0  0  0  0  0  0  0  0  0
   -1.1954    3.5663   -4.9450 C   0  0  0  0  0  0  0  0  0  0  0  0
    0.1090    2.7466   -5.6905 Cl  0  0  0  0  0  0  0  0  0  0  0  0
    0.5138    5.5942   -4.2241 Cl  0  0  0  0  0  0  0  0  0  0  0  0
   -2.2418    0.6980   -4.9246 C   0  0  0  0  0  0  0  0  0  0  0  0
   -1.1416    0.7308   -3.5855 S   0  0  0  0  0  0  0  0  0  0  0  0
   -5.2568    2.3900   -6.1762 C   0  0  0  0  0  0  0  0  0  0  0  0
   -6.4025    1.7369   -6.5374 C   0  0  0  0  0  0  0  0  0  0  0  0
   -6.0651    0.0994   -7.0815 S   0  0  0  0  0  0  0  0  0  0  0  0
   -7.6671    2.0904   -5.9387 C   0  0  0  0  0  0  0  0  0  0  0  0
   -7.4531    2.8262   -4.8189 O   0  0  0  0  0  0  0  0  0  0  0  0
   -8.5079    2.6659   -3.9810 C   0  0  0  0  0  0  0  0  0  0  0  0
   -9.4624    1.9146   -4.6100 C   0  0  0  0  0  0  0  0  0  0  0  0
   -8.9338    1.5447   -5.8797 C   0  0  0  0  0  0  0  0  0  0  0  0
   -9.6012    0.7000   -6.9033 C   0  0  0  0  0  0  0  0  0  0  0  0
   -7.9764    2.9148   -2.6398 C   0  0  0  0  0  0  0  0  0  0  0  0
   -7.3446    4.0426   -2.2229 C   0  0  0  0  0  0  0  0  0  0  0  0
   -6.1419    3.7963   -1.4991 C   0  0  0  0  0  0  0  0  0  0  0  0
   -5.1666    4.7278   -1.1083 C   0  0  0  0  0  0  0  0  0  0  0  0
   -5.3864    6.1672   -1.1711 C   0  0  0  0  0  0  0  0  0  0  0  0
   -5.1357    7.1357    0.2524 S   0  0  0  0  0  0  0  0  0  0  0  0
   -5.4931    8.6056   -0.5857 C   0  0  0  0  0  0  0  0  0  0  0  0
   -5.3945    9.9257    0.0949 C   0  0  0  0  0  0  0  0  0  0  0  0
   -3.9539   10.4427    0.0634 C   0  0  0  0  0  0  0  0  0  0  0  0
   -5.7777    8.3469   -1.8928 C   0  0  0  0  0  0  0  0  0  0  0  0
   -6.1566    9.5568   -3.0488 Cl  0  0  0  0  0  0  0  0  0  0  0  0
   -5.7252    6.9660   -2.2287 C   0  0  0  0  0  0  0  0  0  0  0  0
   -5.9712    6.4189   -3.8393 Cl  0  0  0  0  0  0  0  0  0  0  0  0
   -3.9311    4.2203   -0.7149 C   0  0  0  0  0  0  0  0  0  0  0  0
   -3.6452    2.8369   -0.7066 C   0  0  0  0  0  0  0  0  0  0  0  0
   -4.6539    1.8951   -0.9804 C   0  0  0  0  0  0  0  0  0  0  0  0
   -4.3250    0.4775   -0.9327 C   0  0  0  0  0  0  0  0  0  0  0  0
   -3.5531   -0.1887    0.4807 S   0  0  0  0  0  0  0  0  0  0  0  0
   -3.3546   -1.7408   -0.2527 C   0  0  0  0  0  0  0  0  0  0  0  0
   -2.7142   -2.8683    0.4790 C   0  0  0  0  0  0  0  0  0  0  0  0
   -3.7387   -3.6521    1.3013 C   0  0  0  0  0  0  0  0  0  0  0  0
   -3.8891   -1.7384   -1.5059 C   0  0  0  0  0  0  0  0  0  0  0  0
   -4.4360   -0.4861   -1.8968 C   0  0  0  0  0  0  0  0  0  0  0  0
   -5.0817   -0.2357   -3.4624 Cl  0  0  0  0  0  0  0  0  0  0  0  0
   -3.8905   -3.1035   -2.5434 Cl  0  0  0  0  0  0  0  0  0  0  0  0
   -5.8809    2.4047   -1.3783 C   0  0  0  0  0  0  0  0  0  0  0  0
   -7.2195    1.4637   -1.9648 S   0  0  0  0  0  0  0  0  0  0  0  0
   -2.2653    2.5816   -0.5256 C   0  0  0  0  0  0  0  0  0  0  0  0
   -1.5150    3.7066   -0.3656 C   0  0  0  0  0  0  0  0  0  0  0  0
   -2.4940    5.1554   -0.3758 S   0  0  0  0  0  0  0  0  0  0  0  0
   -0.0877    3.6828   -0.2327 C   0  0  0  0  0  0  0  0  0  0  0  0
    0.7072    2.7312   -0.7952 C   0  0  0  0  0  0  0  0  0  0  0  0
    2.0604    2.7950   -0.3820 C   0  0  0  0  0  0  0  0  0  0  0  0
    3.1186    1.9417   -0.7483 C   0  0  0  0  0  0  0  0  0  0  0  0
    2.9385    0.9507   -1.7978 C   0  0  0  0  0  0  0  0  0  0  0  0
    2.2258    1.4381   -3.3128 S   0  0  0  0  0  0  0  0  0  0  0  0
    2.3219   -0.1549   -3.9753 C   0  0  0  0  0  0  0  0  0  0  0  0
    1.8746   -0.4581   -5.3619 C   0  0  0  0  0  0  0  0  0  0  0  0
    2.9491   -0.0759   -6.3814 C   0  0  0  0  0  0  0  0  0  0  0  0
    2.8943   -1.0007   -3.0736 C   0  0  0  0  0  0  0  0  0  0  0  0
    3.1461   -2.6778   -3.3552 Cl  0  0  0  0  0  0  0  0  0  0  0  0
    3.2514   -0.3809   -1.8460 C   0  0  0  0  0  0  0  0  0  0  0  0
    3.9317   -1.2980   -0.5715 Cl  0  0  0  0  0  0  0  0  0  0  0  0
    4.3302    2.1440   -0.0950 C   0  0  0  0  0  0  0  0  0  0  0  0
    4.5289    3.1779    0.8542 C   0  0  0  0  0  0  0  0  0  0  0  0
    3.4956    4.0820    1.1465 C   0  0  0  0  0  0  0  0  0  0  0  0
    3.7123    5.2239    2.0191 C   0  0  0  0  0  0  0  0  0  0  0  0
    2.6630    5.5704    3.3601 S   0  0  0  0  0  0  0  0  0  0  0  0
    3.5544    6.9853    3.7985 C   0  0  0  0  0  0  0  0  0  0  0  0
    3.1223    7.8464    4.9332 C   0  0  0  0  0  0  0  0  0  0  0  0
    2.0271    8.8195    4.4905 C   0  0  0  0  0  0  0  0  0  0  0  0
    4.5948    7.1736    2.9387 C   0  0  0  0  0  0  0  0  0  0  0  0
    4.6901    6.1761    1.9317 C   0  0  0  0  0  0  0  0  0  0  0  0
    5.8729    6.2324    0.6883 Cl  0  0  0  0  0  0  0  0  0  0  0  0
    5.7007    8.4821    3.0455 Cl  0  0  0  0  0  0  0  0  0  0  0  0
    2.2683    3.8449    0.5429 C   0  0  0  0  0  0  0  0  0  0  0  0
    0.8151    4.7767    0.7903 S   0  0  0  0  0  0  0  0  0  0  0  0
    5.8437    3.1438    1.4020 C   0  0  0  0  0  0  0  0  0  0  0  0
    6.6102    2.1756    0.8604 C   0  0  0  0  0  0  0  0  0  0  0  0
    5.7929    1.2333   -0.3347 S   0  0  0  0  0  0  0  0  0  0  0  0
    7.2574   -8.3078   10.4478 H   0  0  0  0  0  0  0  0  0  0  0  0
    6.6845   -5.8015   10.0416 H   0  0  0  0  0  0  0  0  0  0  0  0
    5.6763    0.3980    9.6853 H   0  0  0  0  0  0  0  0  0  0  0  0
    6.1503    0.2967    7.9784 H   0  0  0  0  0  0  0  0  0  0  0  0
    8.3756   -0.6098    8.6552 H   0  0  0  0  0  0  0  0  0  0  0  0
    8.0804    0.9718    9.3864 H   0  0  0  0  0  0  0  0  0  0  0  0
    7.9056   -0.4952   10.3545 H   0  0  0  0  0  0  0  0  0  0  0  0
    3.8519  -13.2050    5.7864 H   0  0  0  0  0  0  0  0  0  0  0  0
    4.3428  -13.3049    4.0840 H   0  0  0  0  0  0  0  0  0  0  0  0
    1.9169  -13.7962    4.3450 H   0  0  0  0  0  0  0  0  0  0  0  0
    2.1548  -12.3231    3.3998 H   0  0  0  0  0  0  0  0  0  0  0  0
    1.6679  -12.2150    5.0943 H   0  0  0  0  0  0  0  0  0  0  0  0
    3.5179   -7.1323    3.7572 H   0  0  0  0  0  0  0  0  0  0  0  0
    2.4688   -2.4657    3.5860 H   0  0  0  0  0  0  0  0  0  0  0  0
   -0.9117    3.0667    2.6592 H   0  0  0  0  0  0  0  0  0  0  0  0
    0.5524    3.6261    3.4949 H   0  0  0  0  0  0  0  0  0  0  0  0
    0.0233    2.1240    5.4126 H   0  0  0  0  0  0  0  0  0  0  0  0
   -1.4306    1.5636    4.5781 H   0  0  0  0  0  0  0  0  0  0  0  0
   -1.3041    3.2471    5.1014 H   0  0  0  0  0  0  0  0  0  0  0  0
    2.5189   -7.9352   -4.5347 H   0  0  0  0  0  0  0  0  0  0  0  0
    1.3821   -9.1740   -3.9707 H   0  0  0  0  0  0  0  0  0  0  0  0
    0.6885   -8.2617   -6.1817 H   0  0  0  0  0  0  0  0  0  0  0  0
    0.6290   -6.6319   -5.5031 H   0  0  0  0  0  0  0  0  0  0  0  0
   -0.5106   -7.8626   -4.9481 H   0  0  0  0  0  0  0  0  0  0  0  0
   -0.1556   -3.6887   -2.9682 H   0  0  0  0  0  0  0  0  0  0  0  0
   -1.9128   -2.6384   -4.6860 H   0  0  0  0  0  0  0  0  0  0  0  0
   -5.1123   -6.4685   -7.7380 H   0  0  0  0  0  0  0  0  0  0  0  0
   -6.4806   -5.5906   -7.0267 H   0  0  0  0  0  0  0  0  0  0  0  0
   -6.8496   -4.4144   -9.1963 H   0  0  0  0  0  0  0  0  0  0  0  0
   -6.9475   -6.1683   -9.3956 H   0  0  0  0  0  0  0  0  0  0  0  0
   -5.4969   -5.3003   -9.9076 H   0  0  0  0  0  0  0  0  0  0  0  0
   -3.2031    6.7704   -2.6481 H   0  0  0  0  0  0  0  0  0  0  0  0
   -1.4598    7.0351   -2.7921 H   0  0  0  0  0  0  0  0  0  0  0  0
   -2.7498    8.7820   -4.0123 H   0  0  0  0  0  0  0  0  0  0  0  0
   -3.5084    7.5384   -5.0097 H   0  0  0  0  0  0  0  0  0  0  0  0
   -1.7708    7.8283   -5.1330 H   0  0  0  0  0  0  0  0  0  0  0  0
   -5.2635    3.4059   -5.8279 H   0  0  0  0  0  0  0  0  0  0  0  0
  -10.4158    1.6247   -4.2174 H   0  0  0  0  0  0  0  0  0  0  0  0
   -8.8599    0.2324   -7.5472 H   0  0  0  0  0  0  0  0  0  0  0  0
  -10.2634    1.3058   -7.5225 H   0  0  0  0  0  0  0  0  0  0  0  0
  -10.1985   -0.0720   -6.4239 H   0  0  0  0  0  0  0  0  0  0  0  0
   -7.6772    5.0234   -2.5040 H   0  0  0  0  0  0  0  0  0  0  0  0
   -5.7223    9.8259    1.1308 H   0  0  0  0  0  0  0  0  0  0  0  0
   -6.0498   10.6346   -0.4143 H   0  0  0  0  0  0  0  0  0  0  0  0
   -3.2900    9.7392    0.5602 H   0  0  0  0  0  0  0  0  0  0  0  0
   -3.6213   10.5681   -0.9638 H   0  0  0  0  0  0  0  0  0  0  0  0
   -3.8906   11.4019    0.5697 H   0  0  0  0  0  0  0  0  0  0  0  0
   -1.9408   -2.4732    1.1407 H   0  0  0  0  0  0  0  0  0  0  0  0
   -2.2443   -3.5355   -0.2473 H   0  0  0  0  0  0  0  0  0  0  0  0
   -4.5112   -4.0582    0.6532 H   0  0  0  0  0  0  0  0  0  0  0  0
   -4.2065   -3.0042    2.0386 H   0  0  0  0  0  0  0  0  0  0  0  0
   -3.2487   -4.4736    1.8166 H   0  0  0  0  0  0  0  0  0  0  0  0
   -1.8323    1.5998   -0.5251 H   0  0  0  0  0  0  0  0  0  0  0  0
    0.3278    2.0029   -1.4842 H   0  0  0  0  0  0  0  0  0  0  0  0
    1.6606   -1.5266   -5.4319 H   0  0  0  0  0  0  0  0  0  0  0  0
    0.9602    0.0947   -5.5818 H   0  0  0  0  0  0  0  0  0  0  0  0
    3.8688   -0.6211   -6.1844 H   0  0  0  0  0  0  0  0  0  0  0  0
    3.1564    0.9903   -6.3261 H   0  0  0  0  0  0  0  0  0  0  0  0
    2.6097   -0.3134   -7.3861 H   0  0  0  0  0  0  0  0  0  0  0  0
    3.9857    8.4062    5.2973 H   0  0  0  0  0  0  0  0  0  0  0  0
    2.7447    7.2182    5.7420 H   0  0  0  0  0  0  0  0  0  0  0  0
    1.1630    8.2715    4.1221 H   0  0  0  0  0  0  0  0  0  0  0  0
    1.7186    9.4402    5.3273 H   0  0  0  0  0  0  0  0  0  0  0  0
    2.3948    9.4634    3.6956 H   0  0  0  0  0  0  0  0  0  0  0  0
    6.1795    3.8077    2.1770 H   0  0  0  0  0  0  0  0  0  0  0  0
    7.6290    1.9345    1.0934 H   0  0  0  0  0  0  0  0  0  0  0  0
  1  2  2  0  0  0  0
  2  3  1  0  0  0  0
  3  4  2  0  0  0  0
  4  5  1  0  0  0  0
  5  6  1  0  0  0  0
  6  7  1  0  0  0  0
  7  8  1  0  0  0  0
  8  9  1  0  0  0  0
  7 10  2  0  0  0  0
 10 11  1  0  0  0  0
 10 12  1  0  0  0  0
 12 13  1  0  0  0  0
  4 14  1  0  0  0  0
 14 15  2  0  0  0  0
 15 16  1  0  0  0  0
 16 17  1  0  0  0  0
 17 18  1  0  0  0  0
 18 19  1  0  0  0  0
 19 20  1  0  0  0  0
 20 21  1  0  0  0  0
 19 22  2  0  0  0  0
 22 23  1  0  0  0  0
 23 24  1  0  0  0  0
 22 25  1  0  0  0  0
 16 26  2  0  0  0  0
 26 27  1  0  0  0  0
 15 28  1  0  0  0  0
 28 29  2  0  0  0  0
 29 30  1  0  0  0  0
 29 31  1  0  0  0  0
 31 32  2  0  0  0  0
 32 33  1  0  0  0  0
 33 34  2  0  0  0  0
 34 35  1  0  0  0  0
 35 36  1  0  0  0  0
 36 37  1  0  0  0  0
 37 38  1  0  0  0  0
 38 39  1  0  0  0  0
 37 40  2  0  0  0  0
 40 41  1  0  0  0  0
 40 42  1  0  0  0  0
 42 43  1  0  0  0  0
 34 44  1  0  0  0  0
 44 45  2  0  0  0  0
 45 46  1  0  0  0  0
 46 47  1  0  0  0  0
 47 48  1  0  0  0  0
 48 49  1  0  0  0  0
 49 50  1  0  0  0  0
 50 51  1  0  0  0  0
 49 52  2  0  0  0  0
 52 53  1  0  0  0  0
 53 54  1  0  0  0  0
 52 55  1  0  0  0  0
 46 56  2  0  0  0  0
 56 57  1  0  0  0  0
 45 58  1  0  0  0  0
 58 59  2  0  0  0  0
 59 60  1  0  0  0  0
 59 61  1  0  0  0  0
 61 62  2  0  0  0  0
 62 63  1  0  0  0  0
 63 64  2  0  0  0  0
 64 65  1  0  0  0  0
 65 66  1  0  0  0  0
 66 67  1  0  0  0  0
 67 68  1  0  0  0  0
 68 69  1  0  0  0  0
 67 70  2  0  0  0  0
 70 71  1  0  0  0  0
 70 72  1  0  0  0  0
 72 73  1  0  0  0  0
 64 74  1  0  0  0  0
 74 75  2  0  0  0  0
 75 76  1  0  0  0  0
 76 77  1  0  0  0  0
 77 78  1  0  0  0  0
 78 79  1  0  0  0  0
 79 80  1  0  0  0  0
 80 81  1  0  0  0  0
 79 82  2  0  0  0  0
 82 83  1  0  0  0  0
 83 84  1  0  0  0  0
 82 85  1  0  0  0  0
 76 86  2  0  0  0  0
 86 87  1  0  0  0  0
 75 88  1  0  0  0  0
 88 89  2  0  0  0  0
 89 90  1  0  0  0  0
 89 91  1  0  0  0  0
 91 92  1  0  0  0  0
 92 93  1  0  0  0  0
 93 94  2  0  0  0  0
 94 95  1  0  0  0  0
 95 96  1  0  0  0  0
 93 97  1  0  0  0  0
 97 98  2  0  0  0  0
 98 99  1  0  0  0  0
 99100  2  0  0  0  0
100101  1  0  0  0  0
101102  1  0  0  0  0
102103  1  0  0  0  0
103104  1  0  0  0  0
104105  1  0  0  0  0
103106  2  0  0  0  0
106107  1  0  0  0  0
106108  1  0  0  0  0
108109  1  0  0  0  0
100110  1  0  0  0  0
110111  2  0  0  0  0
111112  1  0  0  0  0
112113  1  0  0  0  0
113114  1  0  0  0  0
114115  1  0  0  0  0
115116  1  0  0  0  0
116117  1  0  0  0  0
115118  2  0  0  0  0
118119  1  0  0  0  0
119120  1  0  0  0  0
118121  1  0  0  0  0
112122  2  0  0  0  0
122123  1  0  0  0  0
111124  1  0  0  0  0
124125  2  0  0  0  0
125126  1  0  0  0  0
125127  1  0  0  0  0
127128  2  0  0  0  0
128129  1  0  0  0  0
129130  2  0  0  0  0
130131  1  0  0  0  0
131132  1  0  0  0  0
132133  1  0  0  0  0
133134  1  0  0  0  0
134135  1  0  0  0  0
133136  2  0  0  0  0
136137  1  0  0  0  0
136138  1  0  0  0  0
138139  1  0  0  0  0
130140  1  0  0  0  0
140141  2  0  0  0  0
141142  1  0  0  0  0
142143  1  0  0  0  0
143144  1  0  0  0  0
144145  1  0  0  0  0
145146  1  0  0  0  0
146147  1  0  0  0  0
145148  2  0  0  0  0
148149  1  0  0  0  0
149150  1  0  0  0  0
148151  1  0  0  0  0
142152  2  0  0  0  0
152153  1  0  0  0  0
141154  1  0  0  0  0
154155  2  0  0  0  0
155156  1  0  0  0  0
 27  1  1  0  0  0  0
 57 31  1  0  0  0  0
 87 61  1  0  0  0  0
 95 91  2  0  0  0  0
123 97  1  0  0  0  0
153127  1  0  0  0  0
 26  3  1  0  0  0  0
 56 33  1  0  0  0  0
 86 63  1  0  0  0  0
122 99  1  0  0  0  0
152129  1  0  0  0  0
 12  5  2  0  0  0  0
 30 14  1  0  0  0  0
 42 35  2  0  0  0  0
 60 44  1  0  0  0  0
 72 65  2  0  0  0  0
 90 74  1  0  0  0  0
108101  2  0  0  0  0
126110  1  0  0  0  0
138131  2  0  0  0  0
156140  1  0  0  0  0
 23 17  2  0  0  0  0
 53 47  2  0  0  0  0
 83 77  2  0  0  0  0
119113  2  0  0  0  0
149143  2  0  0  0  0
  1157  1  0  0  0  0
  2158  1  0  0  0  0
  8159  1  0  0  0  0
  8160  1  0  0  0  0
  9161  1  0  0  0  0
  9162  1  0  0  0  0
  9163  1  0  0  0  0
 20164  1  0  0  0  0
 20165  1  0  0  0  0
 21166  1  0  0  0  0
 21167  1  0  0  0  0
 21168  1  0  0  0  0
 28169  1  0  0  0  0
 32170  1  0  0  0  0
 38171  1  0  0  0  0
 38172  1  0  0  0  0
 39173  1  0  0  0  0
 39174  1  0  0  0  0
 39175  1  0  0  0  0
 50176  1  0  0  0  0
 50177  1  0  0  0  0
 51178  1  0  0  0  0
 51179  1  0  0  0  0
 51180  1  0  0  0  0
 58181  1  0  0  0  0
 62182  1  0  0  0  0
 68183  1  0  0  0  0
 68184  1  0  0  0  0
 69185  1  0  0  0  0
 69186  1  0  0  0  0
 69187  1  0  0  0  0
 80188  1  0  0  0  0
 80189  1  0  0  0  0
 81190  1  0  0  0  0
 81191  1  0  0  0  0
 81192  1  0  0  0  0
 88193  1  0  0  0  0
 94194  1  0  0  0  0
 96195  1  0  0  0  0
 96196  1  0  0  0  0
 96197  1  0  0  0  0
 98198  1  0  0  0  0
104199  1  0  0  0  0
104200  1  0  0  0  0
105201  1  0  0  0  0
105202  1  0  0  0  0
105203  1  0  0  0  0
116204  1  0  0  0  0
116205  1  0  0  0  0
117206  1  0  0  0  0
117207  1  0  0  0  0
117208  1  0  0  0  0
124209  1  0  0  0  0
128210  1  0  0  0  0
134211  1  0  0  0  0
134212  1  0  0  0  0
135213  1  0  0  0  0
135214  1  0  0  0  0
135215  1  0  0  0  0
146216  1  0  0  0  0
146217  1  0  0  0  0
147218  1  0  0  0  0
147219  1  0  0  0  0
147220  1  0  0  0  0
154221  1  0  0  0  0
155222  1  0  0  0  0
M  END
