170

C          6.77990      -13.42450        7.31160
C          7.21670      -12.26110        6.78730
C          6.18460      -11.28530        6.67110
C          6.26870       -9.99340        6.12700
C          7.54340       -9.42550        5.72060
S          7.77720       -8.72530        4.14730
C          9.41790       -8.30020        4.49490
C         10.28470       -7.65900        3.46840
C         10.97070       -8.71220        2.59480
C          9.75160       -8.68870        5.75830
Cl        11.29640       -8.43430        6.46110
C          8.69070       -9.32280        6.45840
Cl         8.83240       -9.82480        8.09370
C          5.08270       -9.27970        6.01320
C          3.84070       -9.77870        6.47440
C          3.76200      -11.05450        7.05910
C          2.49220      -11.57560        7.53660
S          1.09070      -11.59530        6.50520
C          0.09070      -12.28110        7.74010
C         -1.36030      -12.51590        7.50330
C         -2.12840      -11.19350        7.43860
C          0.81540      -12.48050        8.87670
C          2.17790      -12.08900        8.76400
Cl         3.26830      -12.17460       10.08240
Cl         0.16970      -13.13690       10.32460
C          4.94180      -11.78520        7.13150
S          5.09650      -13.42140        7.70250
C          2.79810       -8.83860        6.29560
C          3.20350       -7.68190        5.69880
S          4.91890       -7.67790        5.34770
C          2.37800       -6.57170        5.35970
C          2.70430       -5.45840        4.64270
C          1.62390       -4.56010        4.47590
C          1.61220       -3.32410        3.80710
C          2.79830       -2.73150        3.21280
S          2.75230       -2.10600        1.58760
C          4.37430       -1.51370        1.68030
C          4.98520       -0.80000        0.52600
C          5.21710       -1.73860       -0.65880
C          4.91550       -1.81380        2.89530
Cl         6.51110       -1.39200        3.36760
C          4.02700       -2.50100        3.76760
Cl         4.45010       -2.89650        5.38320
C          0.38740       -2.67600        3.72110
C         -0.81560       -3.17530        4.28240
C         -0.78540       -4.38040        5.01490
C         -1.96540       -4.88830        5.68980
S         -2.46080       -6.54840        5.53250
C         -3.80660       -6.33080        6.59720
C         -4.74910       -7.44710        6.88200
C         -5.76930       -7.60580        5.75220
C         -3.86030       -5.04130        7.03700
C         -2.81710       -4.22150        6.52930
Cl        -2.61530       -2.58830        7.01880
Cl        -5.05550       -4.44420        8.11400
C          0.43030       -5.04830        5.06950
S          0.70090       -6.57190        5.86540
C         -1.92430       -2.35740        3.96790
C         -1.59070       -1.24680        3.23450
S          0.13080       -1.16260        2.91720
C         -2.42070       -0.24450        2.67800
C         -3.85060       -0.06220        2.85500
N         -4.34900        0.91460        2.13360
C         -3.31220        1.45660        1.45700
C         -2.06570        0.76960        1.79400
C         -1.00670        1.29400        0.97350
S          0.59750        0.82430        0.60600
C         -1.60030        2.31110        0.24020
C         -3.03000        2.38500        0.43830
N         -3.57460        3.11590       -0.56110
C         -2.58740        3.43540       -1.39350
C         -1.30460        2.95560       -0.97460
C         -0.00240        2.81760       -1.45410
C          1.05780        2.27400       -0.48520
N          2.24080        1.99140       -1.23560
C          2.02490        2.39720       -2.43750
C          0.65810        2.95210       -2.64710
C          0.54960        3.41550       -3.96960
S         -0.93390        4.00080       -4.65430
C          1.78950        3.18040       -4.59670
C          2.68950        2.53460       -3.68740
N          3.85110        2.20630       -4.28060
C          3.74090        2.58570       -5.53910
C          2.48490        3.21700       -5.84810
C          2.12820        3.73420       -7.08970
C          2.86060        3.44220       -8.32960
N          2.38640        4.01600       -9.39430
C          1.32350        4.75700       -8.98330
C          1.11030        4.60270       -7.52180
C          0.06480        5.44020       -7.13060
S         -0.45870        5.82240       -5.52460
C         -0.41310        6.09160       -8.31230
C          0.40660        5.65870       -9.45040
N         -0.00370        6.27160      -10.60320
C         -0.99950        7.02780      -10.26500
C         -1.34310        6.97430       -8.83190
C         -2.45100        7.64110       -8.25740
C         -3.23190        8.59850       -8.86150
C         -4.31490        9.03050       -8.06920
C         -5.31070        9.97410       -8.39390
C         -5.37400       10.57550       -9.71310
S         -5.48480       12.29760       -9.92490
C         -5.52310       12.16160      -11.64820
C         -5.67360       13.36330      -12.51320
C         -7.15050       13.73300      -12.67360
C         -5.46880       10.85140      -12.02380
Cl        -5.50050       10.32070      -13.65570
C         -5.37600        9.94930      -10.93110
Cl        -5.36610        8.24510      -11.14480
C         -6.23060       10.27830       -7.39950
C         -6.23720        9.64570       -6.13180
C         -5.28960        8.65130       -5.83450
C         -5.33220        7.91960       -4.57860
S         -3.94930        7.79520       -3.53170
C         -4.81440        6.84400       -2.37340
C         -4.19270        6.42140       -1.08900
C         -4.59780        7.36010        0.05050
C         -6.09530        6.63310       -2.79240
C         -6.39160        7.24080       -4.04120
Cl        -7.91150        7.06450       -4.81750
Cl        -7.24710        5.71710       -1.91120
C         -4.33190        8.39040       -6.80330
S         -3.03280        7.24850       -6.65040
C         -7.26950       10.15770       -5.29590
C         -8.02030       11.09750       -5.90820
S         -7.52940       11.43250       -7.53040
H          7.34760      -14.31450        7.50140
H          8.22940      -12.09270        6.47130
H         11.04130       -7.05710        3.97530
H          9.67780       -7.00450        2.84090
H         11.59660       -8.22840        1.85000
H         10.22820       -9.32170        2.08530
H         11.59390       -9.36040        3.20560
H         -1.74930      -13.13150        8.31570
H         -1.49340      -13.05500        6.56290
H         -2.01910      -10.64760        8.37260
H         -3.18440      -11.38600        7.26840
H         -1.74910      -10.57540        6.62770
H          1.77900       -9.00480        6.59320
H          3.68470       -5.30070        4.23200
H          4.32190        0.00880        0.20900
H          5.93330       -0.36670        0.84820
H          4.27510       -2.17640       -0.98020
H          5.64260       -1.18340       -1.48970
H          5.89930       -2.53970       -0.38390
H         -5.26850       -7.23450        7.81790
H         -4.18600       -8.37530        6.99560
H         -6.34500       -6.69160        5.63270
H         -5.26260       -7.82330        4.81510
H         -6.45240       -8.41990        5.97800
H         -2.93570       -2.59470        4.24100
H         -4.48110       -0.63950        3.50530
H         -2.79960        3.99750       -2.28520
H          1.29910        3.04170        0.26240
H          4.56480        2.44910       -6.21420
H          3.71540        2.79330       -8.39740
H         -1.51860        7.61190      -11.00290
H         -3.01640        8.99940       -9.83420
H         -5.24140       13.14850      -13.49220
H         -5.13560       14.20160      -12.06760
H         -7.69650       12.91280      -13.13250
H         -7.59330       13.94620      -11.70360
H         -7.24800       14.61240      -13.30400
H         -4.51700        5.40530       -0.85090
H         -3.10650        6.42690       -1.19530
H         -4.26930        8.37620       -0.15630
H         -4.14430        7.02750        0.98010
H         -5.67740        7.36050        0.17240
H         -7.42390        9.83750       -4.28240
H         -8.85440       11.63720       -5.50410
