
  xtb     03032201373D
 energy: -453.995186145919 gnorm: 0.000351402458 xtb: 6.4.1 (unknown)
227253  0     0  0            999 V2000
    3.5912   -8.4562    9.8270 C   0  0  0  0  0  0  0  0  0  0  0  0
    3.5677   -9.0804    8.6317 C   0  0  0  0  0  0  0  0  0  0  0  0
    2.7006   -8.4466    7.6950 C   0  0  0  0  0  0  0  0  0  0  0  0
    2.4589   -8.7950    6.3571 C   0  0  0  0  0  0  0  0  0  0  0  0
    2.9927  -10.0190    5.7848 C   0  0  0  0  0  0  0  0  0  0  0  0
    3.8640  -10.0235    4.2809 S   0  0  0  0  0  0  0  0  0  0  0  0
    4.0843  -11.7389    4.3243 C   0  0  0  0  0  0  0  0  0  0  0  0
    4.7611  -12.4573    3.2100 C   0  0  0  0  0  0  0  0  0  0  0  0
    3.7720  -12.7597    2.0815 C   0  0  0  0  0  0  0  0  0  0  0  0
    3.5012  -12.2646    5.4386 C   0  0  0  0  0  0  0  0  0  0  0  0
    3.5011  -13.9376    5.8207 Cl  0  0  0  0  0  0  0  0  0  0  0  0
    2.8859  -11.2927    6.2723 C   0  0  0  0  0  0  0  0  0  0  0  0
    2.0259  -11.7111    7.6975 Cl  0  0  0  0  0  0  0  0  0  0  0  0
    1.6700   -7.9263    5.6136 C   0  0  0  0  0  0  0  0  0  0  0  0
    1.0655   -6.7684    6.1613 C   0  0  0  0  0  0  0  0  0  0  0  0
    1.2380   -6.4672    7.5233 C   0  0  0  0  0  0  0  0  0  0  0  0
    0.5677   -5.3433    8.1557 C   0  0  0  0  0  0  0  0  0  0  0  0
    0.6941   -3.7235    7.5367 S   0  0  0  0  0  0  0  0  0  0  0  0
   -0.2857   -3.0719    8.8063 C   0  0  0  0  0  0  0  0  0  0  0  0
   -0.5565   -1.6127    8.9211 C   0  0  0  0  0  0  0  0  0  0  0  0
    0.5790   -0.9001    9.6596 C   0  0  0  0  0  0  0  0  0  0  0  0
   -0.6788   -4.0658    9.6517 C   0  0  0  0  0  0  0  0  0  0  0  0
   -0.2023   -5.3530    9.2860 C   0  0  0  0  0  0  0  0  0  0  0  0
   -0.6440   -6.7695   10.1434 Cl  0  0  0  0  0  0  0  0  0  0  0  0
   -1.6664   -3.8113   11.0315 Cl  0  0  0  0  0  0  0  0  0  0  0  0
    2.0770   -7.3042    8.2513 C   0  0  0  0  0  0  0  0  0  0  0  0
    2.5665   -7.0671    9.9047 S   0  0  0  0  0  0  0  0  0  0  0  0
    0.2854   -6.0767    5.2012 C   0  0  0  0  0  0  0  0  0  0  0  0
    0.2827   -6.6717    3.9733 C   0  0  0  0  0  0  0  0  0  0  0  0
    1.2452   -8.1325    3.9396 S   0  0  0  0  0  0  0  0  0  0  0  0
   -0.4124   -6.2404    2.8012 C   0  0  0  0  0  0  0  0  0  0  0  0
   -1.0260   -5.0388    2.5961 C   0  0  0  0  0  0  0  0  0  0  0  0
   -1.6719   -4.9457    1.3401 C   0  0  0  0  0  0  0  0  0  0  0  0
   -2.3525   -3.8452    0.7974 C   0  0  0  0  0  0  0  0  0  0  0  0
   -2.3644   -2.5421    1.4512 C   0  0  0  0  0  0  0  0  0  0  0  0
   -3.0242   -2.2646    3.0338 S   0  0  0  0  0  0  0  0  0  0  0  0
   -2.5889   -0.5875    3.0103 C   0  0  0  0  0  0  0  0  0  0  0  0
   -2.8650    0.3014    4.1720 C   0  0  0  0  0  0  0  0  0  0  0  0
   -1.6986    0.2979    5.1618 C   0  0  0  0  0  0  0  0  0  0  0  0
   -1.9499   -0.2803    1.8462 C   0  0  0  0  0  0  0  0  0  0  0  0
   -1.2933    1.2683    1.4876 Cl  0  0  0  0  0  0  0  0  0  0  0  0
   -1.8374   -1.3815    0.9548 C   0  0  0  0  0  0  0  0  0  0  0  0
   -1.0448   -1.2572   -0.5620 Cl  0  0  0  0  0  0  0  0  0  0  0  0
   -2.9287   -4.0218   -0.4523 C   0  0  0  0  0  0  0  0  0  0  0  0
   -2.7656   -5.1907   -1.2345 C   0  0  0  0  0  0  0  0  0  0  0  0
   -2.0406   -6.2746   -0.7103 C   0  0  0  0  0  0  0  0  0  0  0  0
   -1.8171   -7.4812   -1.4900 C   0  0  0  0  0  0  0  0  0  0  0  0
   -1.1068   -7.3999   -3.0762 S   0  0  0  0  0  0  0  0  0  0  0  0
   -1.1502   -9.1188   -3.2714 C   0  0  0  0  0  0  0  0  0  0  0  0
   -0.6961   -9.7596   -4.5360 C   0  0  0  0  0  0  0  0  0  0  0  0
   -1.7555   -9.6177   -5.6314 C   0  0  0  0  0  0  0  0  0  0  0  0
   -1.6962   -9.7054   -2.1693 C   0  0  0  0  0  0  0  0  0  0  0  0
   -2.0692   -8.7822   -1.1545 C   0  0  0  0  0  0  0  0  0  0  0  0
   -2.8400   -9.2759    0.2938 Cl  0  0  0  0  0  0  0  0  0  0  0  0
   -1.9179  -11.3978   -1.9942 Cl  0  0  0  0  0  0  0  0  0  0  0  0
   -1.5336   -6.1338    0.5774 C   0  0  0  0  0  0  0  0  0  0  0  0
   -0.5831   -7.3137    1.4309 S   0  0  0  0  0  0  0  0  0  0  0  0
   -3.4042   -5.0737   -2.5004 C   0  0  0  0  0  0  0  0  0  0  0  0
   -4.0689   -3.9000   -2.6644 C   0  0  0  0  0  0  0  0  0  0  0  0
   -3.9348   -2.8601   -1.2518 S   0  0  0  0  0  0  0  0  0  0  0  0
   -4.6985   -3.2977   -3.8047 C   0  0  0  0  0  0  0  0  0  0  0  0
   -5.6685   -2.3438   -3.7419 C   0  0  0  0  0  0  0  0  0  0  0  0
   -5.7806   -1.5689   -4.9230 C   0  0  0  0  0  0  0  0  0  0  0  0
   -6.4380   -0.3296   -5.0374 C   0  0  0  0  0  0  0  0  0  0  0  0
   -7.3744    0.0980   -4.0173 C   0  0  0  0  0  0  0  0  0  0  0  0
   -7.2504    1.6512   -3.2420 S   0  0  0  0  0  0  0  0  0  0  0  0
   -8.5754    1.3148   -2.1791 C   0  0  0  0  0  0  0  0  0  0  0  0
   -9.0080    2.3120   -1.1616 C   0  0  0  0  0  0  0  0  0  0  0  0
   -7.8783    2.6544   -0.1902 C   0  0  0  0  0  0  0  0  0  0  0  0
   -9.0810    0.0735   -2.4294 C   0  0  0  0  0  0  0  0  0  0  0  0
  -10.4122   -0.6132   -1.5902 Cl  0  0  0  0  0  0  0  0  0  0  0  0
   -8.4007   -0.6206   -3.4658 C   0  0  0  0  0  0  0  0  0  0  0  0
   -8.8775   -2.1795   -4.0010 Cl  0  0  0  0  0  0  0  0  0  0  0  0
   -5.9865    0.5032   -6.0493 C   0  0  0  0  0  0  0  0  0  0  0  0
   -5.0358    0.1127   -7.0263 C   0  0  0  0  0  0  0  0  0  0  0  0
   -4.5520   -1.2119   -7.0325 C   0  0  0  0  0  0  0  0  0  0  0  0
   -3.6650   -1.7367   -8.0529 C   0  0  0  0  0  0  0  0  0  0  0  0
   -2.2701   -0.8837   -8.6500 S   0  0  0  0  0  0  0  0  0  0  0  0
   -1.8196   -2.1771   -9.7060 C   0  0  0  0  0  0  0  0  0  0  0  0
   -0.5889   -2.1043  -10.5396 C   0  0  0  0  0  0  0  0  0  0  0  0
    0.6223   -2.6420   -9.7732 C   0  0  0  0  0  0  0  0  0  0  0  0
   -2.7035   -3.2076   -9.5895 C   0  0  0  0  0  0  0  0  0  0  0  0
   -3.7467   -2.9641   -8.6573 C   0  0  0  0  0  0  0  0  0  0  0  0
   -5.0195   -4.0826   -8.4045 Cl  0  0  0  0  0  0  0  0  0  0  0  0
   -2.5909   -4.6668  -10.4844 Cl  0  0  0  0  0  0  0  0  0  0  0  0
   -4.8789   -1.9937   -5.9236 C   0  0  0  0  0  0  0  0  0  0  0  0
   -4.0005   -3.4154   -5.4100 S   0  0  0  0  0  0  0  0  0  0  0  0
   -4.5329    1.2325   -7.7442 C   0  0  0  0  0  0  0  0  0  0  0  0
   -5.0154    2.4265   -7.2895 C   0  0  0  0  0  0  0  0  0  0  0  0
   -6.3205    2.2079   -6.1354 S   0  0  0  0  0  0  0  0  0  0  0  0
   -4.3526    3.6988   -7.2673 C   0  0  0  0  0  0  0  0  0  0  0  0
   -4.4297    4.4945   -5.7211 S   0  0  0  0  0  0  0  0  0  0  0  0
   -3.0474    5.4873   -6.0923 C   0  0  0  0  0  0  0  0  0  0  0  0
   -2.6589    5.2999   -7.4042 C   0  0  0  0  0  0  0  0  0  0  0  0
   -3.3836    4.2725   -8.0584 C   0  0  0  0  0  0  0  0  0  0  0  0
   -3.0665    3.8409   -9.4604 C   0  0  0  0  0  0  0  0  0  0  0  0
   -2.4091    5.0001  -10.1759 C   0  0  0  0  0  0  0  0  0  0  0  0
   -2.8210    5.5196  -11.1746 O   0  0  0  0  0  0  0  0  0  0  0  0
   -1.1718    5.4457   -9.4041 C   0  0  0  0  0  0  0  0  0  0  0  0
   -0.0490    5.3006   -9.8046 O   0  0  0  0  0  0  0  0  0  0  0  0
   -1.5283    6.0329   -8.0586 C   0  0  0  0  0  0  0  0  0  0  0  0
   -2.3715    6.0455   -4.9622 C   0  0  0  0  0  0  0  0  0  0  0  0
   -2.6431    5.6220   -3.6910 C   0  0  0  0  0  0  0  0  0  0  0  0
   -1.6419    5.9363   -2.7518 C   0  0  0  0  0  0  0  0  0  0  0  0
   -1.4904    5.3672   -1.4767 C   0  0  0  0  0  0  0  0  0  0  0  0
   -2.3978    4.3319   -1.0096 C   0  0  0  0  0  0  0  0  0  0  0  0
   -2.7035    2.9665   -2.0432 S   0  0  0  0  0  0  0  0  0  0  0  0
   -3.6830    2.1853   -0.8583 C   0  0  0  0  0  0  0  0  0  0  0  0
   -4.3010    0.8612   -1.1412 C   0  0  0  0  0  0  0  0  0  0  0  0
   -3.9440    0.3746   -2.5367 C   0  0  0  0  0  0  0  0  0  0  0  0
   -3.7601    2.9484    0.2688 C   0  0  0  0  0  0  0  0  0  0  0  0
   -4.6596    2.4837    1.6526 Cl  0  0  0  0  0  0  0  0  0  0  0  0
   -3.0216    4.1602    0.1946 C   0  0  0  0  0  0  0  0  0  0  0  0
   -2.9830    5.3016    1.4721 Cl  0  0  0  0  0  0  0  0  0  0  0  0
   -0.3188    5.6668   -0.8018 C   0  0  0  0  0  0  0  0  0  0  0  0
    0.6771    6.5364   -1.3160 C   0  0  0  0  0  0  0  0  0  0  0  0
    0.5103    7.1176   -2.5900 C   0  0  0  0  0  0  0  0  0  0  0  0
    1.5125    7.9822   -3.1867 C   0  0  0  0  0  0  0  0  0  0  0  0
    3.1980    7.5544   -3.2441 S   0  0  0  0  0  0  0  0  0  0  0  0
    3.6191    8.9945   -4.1041 C   0  0  0  0  0  0  0  0  0  0  0  0
    5.0164    9.2519   -4.5478 C   0  0  0  0  0  0  0  0  0  0  0  0
    5.2741    8.6344   -5.9246 C   0  0  0  0  0  0  0  0  0  0  0  0
    2.5086    9.7516   -4.3314 C   0  0  0  0  0  0  0  0  0  0  0  0
    1.3146    9.1828   -3.8143 C   0  0  0  0  0  0  0  0  0  0  0  0
   -0.1950    9.9887   -3.9051 Cl  0  0  0  0  0  0  0  0  0  0  0  0
    2.5302   11.2572   -5.1538 Cl  0  0  0  0  0  0  0  0  0  0  0  0
   -0.6330    6.7614   -3.3001 C   0  0  0  0  0  0  0  0  0  0  0  0
   -0.9293    7.0449   -5.0008 S   0  0  0  0  0  0  0  0  0  0  0  0
    1.8151    6.5716   -0.4686 C   0  0  0  0  0  0  0  0  0  0  0  0
    1.7310    5.7136    0.5883 C   0  0  0  0  0  0  0  0  0  0  0  0
    0.1895    4.8898    0.6633 S   0  0  0  0  0  0  0  0  0  0  0  0
    2.7391    5.3353    1.5244 C   0  0  0  0  0  0  0  0  0  0  0  0
    2.7228    4.2110    2.2957 C   0  0  0  0  0  0  0  0  0  0  0  0
    3.9089    4.0191    3.0431 C   0  0  0  0  0  0  0  0  0  0  0  0
    4.2462    2.9299    3.8633 C   0  0  0  0  0  0  0  0  0  0  0  0
    3.3621    1.7835    4.0033 C   0  0  0  0  0  0  0  0  0  0  0  0
    2.7595    0.9393    2.6028 S   0  0  0  0  0  0  0  0  0  0  0  0
    1.9381   -0.2407    3.5627 C   0  0  0  0  0  0  0  0  0  0  0  0
    1.1861   -1.3711    2.9484 C   0  0  0  0  0  0  0  0  0  0  0  0
    1.9710   -2.6821    3.0322 C   0  0  0  0  0  0  0  0  0  0  0  0
    2.1260    0.0202    4.8872 C   0  0  0  0  0  0  0  0  0  0  0  0
    1.4721   -0.9402    6.1459 Cl  0  0  0  0  0  0  0  0  0  0  0  0
    2.9267    1.1645    5.1426 C   0  0  0  0  0  0  0  0  0  0  0  0
    3.2196    1.7338    6.7316 Cl  0  0  0  0  0  0  0  0  0  0  0  0
    5.4927    2.9727    4.4791 C   0  0  0  0  0  0  0  0  0  0  0  0
    6.3987    4.0476    4.3089 C   0  0  0  0  0  0  0  0  0  0  0  0
    6.0608    5.1319    3.4847 C   0  0  0  0  0  0  0  0  0  0  0  0
    6.9746    6.2419    3.2619 C   0  0  0  0  0  0  0  0  0  0  0  0
    8.5827    5.9867    2.6519 S   0  0  0  0  0  0  0  0  0  0  0  0
    8.9301    7.6819    2.6341 C   0  0  0  0  0  0  0  0  0  0  0  0
   10.2283    8.2004    2.1219 C   0  0  0  0  0  0  0  0  0  0  0  0
   10.1667    8.4189    0.6081 C   0  0  0  0  0  0  0  0  0  0  0  0
    7.8522    8.3902    3.0739 C   0  0  0  0  0  0  0  0  0  0  0  0
    6.7425    7.5780    3.4322 C   0  0  0  0  0  0  0  0  0  0  0  0
    5.2969    8.2283    4.0834 Cl  0  0  0  0  0  0  0  0  0  0  0  0
    7.8199   10.1010    3.2006 Cl  0  0  0  0  0  0  0  0  0  0  0  0
    4.8213    5.0868    2.8598 C   0  0  0  0  0  0  0  0  0  0  0  0
    4.2164    6.2511    1.7136 S   0  0  0  0  0  0  0  0  0  0  0  0
    7.6053    3.8381    5.0382 C   0  0  0  0  0  0  0  0  0  0  0  0
    7.6224    2.6592    5.6926 C   0  0  0  0  0  0  0  0  0  0  0  0
    6.1804    1.7302    5.4852 S   0  0  0  0  0  0  0  0  0  0  0  0
    4.1580   -8.7229   10.6976 H   0  0  0  0  0  0  0  0  0  0  0  0
    4.1559   -9.9493    8.4013 H   0  0  0  0  0  0  0  0  0  0  0  0
    5.5763  -11.8431    2.8238 H   0  0  0  0  0  0  0  0  0  0  0  0
    5.1758  -13.3910    3.5941 H   0  0  0  0  0  0  0  0  0  0  0  0
    3.3474  -11.8363    1.6949 H   0  0  0  0  0  0  0  0  0  0  0  0
    2.9634  -13.3870    2.4478 H   0  0  0  0  0  0  0  0  0  0  0  0
    4.2769  -13.2795    1.2718 H   0  0  0  0  0  0  0  0  0  0  0  0
   -1.4909   -1.4754    9.4689 H   0  0  0  0  0  0  0  0  0  0  0  0
   -0.6673   -1.1802    7.9258 H   0  0  0  0  0  0  0  0  0  0  0  0
    0.3646    0.1625    9.7340 H   0  0  0  0  0  0  0  0  0  0  0  0
    0.6913   -1.3060   10.6617 H   0  0  0  0  0  0  0  0  0  0  0  0
    1.5170   -1.0284    9.1252 H   0  0  0  0  0  0  0  0  0  0  0  0
   -0.2643   -5.1811    5.4217 H   0  0  0  0  0  0  0  0  0  0  0  0
   -1.0267   -4.2454    3.3199 H   0  0  0  0  0  0  0  0  0  0  0  0
   -3.0262    1.3161    3.8038 H   0  0  0  0  0  0  0  0  0  0  0  0
   -3.7721   -0.0352    4.6762 H   0  0  0  0  0  0  0  0  0  0  0  0
   -1.5115   -0.7115    5.5214 H   0  0  0  0  0  0  0  0  0  0  0  0
   -0.7964    0.6720    4.6848 H   0  0  0  0  0  0  0  0  0  0  0  0
   -1.9298    0.9336    6.0120 H   0  0  0  0  0  0  0  0  0  0  0  0
    0.2325   -9.2917   -4.8686 H   0  0  0  0  0  0  0  0  0  0  0  0
   -0.5058  -10.8164   -4.3420 H   0  0  0  0  0  0  0  0  0  0  0  0
   -1.9478   -8.5671   -5.8364 H   0  0  0  0  0  0  0  0  0  0  0  0
   -1.4134  -10.0947   -6.5457 H   0  0  0  0  0  0  0  0  0  0  0  0
   -2.6851  -10.0879   -5.3203 H   0  0  0  0  0  0  0  0  0  0  0  0
   -3.3762   -5.8368   -3.2566 H   0  0  0  0  0  0  0  0  0  0  0  0
   -6.2239   -2.1421   -2.8433 H   0  0  0  0  0  0  0  0  0  0  0  0
   -9.8590    1.9011   -0.6162 H   0  0  0  0  0  0  0  0  0  0  0  0
   -9.3327    3.2251   -1.6673 H   0  0  0  0  0  0  0  0  0  0  0  0
   -7.5483    1.7645    0.3404 H   0  0  0  0  0  0  0  0  0  0  0  0
   -7.0314    3.0755   -0.7277 H   0  0  0  0  0  0  0  0  0  0  0  0
   -8.2215    3.3822    0.5398 H   0  0  0  0  0  0  0  0  0  0  0  0
   -0.4061   -1.0681  -10.8289 H   0  0  0  0  0  0  0  0  0  0  0  0
   -0.7419   -2.6989  -11.4423 H   0  0  0  0  0  0  0  0  0  0  0  0
    0.4583   -3.6783   -9.4893 H   0  0  0  0  0  0  0  0  0  0  0  0
    1.5107   -2.5870  -10.3960 H   0  0  0  0  0  0  0  0  0  0  0  0
    0.7900   -2.0567   -8.8722 H   0  0  0  0  0  0  0  0  0  0  0  0
   -3.7396    1.1607   -8.4632 H   0  0  0  0  0  0  0  0  0  0  0  0
   -3.9666    3.5225   -9.9895 H   0  0  0  0  0  0  0  0  0  0  0  0
   -2.3560    3.0069   -9.4374 H   0  0  0  0  0  0  0  0  0  0  0  0
   -1.8196    7.0763   -8.2289 H   0  0  0  0  0  0  0  0  0  0  0  0
   -0.6399    6.0500   -7.4198 H   0  0  0  0  0  0  0  0  0  0  0  0
   -3.5037    5.0256   -3.4531 H   0  0  0  0  0  0  0  0  0  0  0  0
   -5.3867    0.9432   -1.0386 H   0  0  0  0  0  0  0  0  0  0  0  0
   -3.9599    0.1377   -0.3947 H   0  0  0  0  0  0  0  0  0  0  0  0
   -4.2963    1.0783   -3.2883 H   0  0  0  0  0  0  0  0  0  0  0  0
   -4.3996   -0.5909   -2.7253 H   0  0  0  0  0  0  0  0  0  0  0  0
   -2.8664    0.2706   -2.6372 H   0  0  0  0  0  0  0  0  0  0  0  0
    5.1749   10.3309   -4.5972 H   0  0  0  0  0  0  0  0  0  0  0  0
    5.7118    8.8275   -3.8217 H   0  0  0  0  0  0  0  0  0  0  0  0
    6.2957    8.8333   -6.2369 H   0  0  0  0  0  0  0  0  0  0  0  0
    4.5959    9.0584   -6.6605 H   0  0  0  0  0  0  0  0  0  0  0  0
    5.1218    7.5583   -5.8909 H   0  0  0  0  0  0  0  0  0  0  0  0
    2.6896    7.1677   -0.6556 H   0  0  0  0  0  0  0  0  0  0  0  0
    1.8905    3.5308    2.3080 H   0  0  0  0  0  0  0  0  0  0  0  0
    0.2360   -1.4894    3.4747 H   0  0  0  0  0  0  0  0  0  0  0  0
    0.9777   -1.1344    1.9047 H   0  0  0  0  0  0  0  0  0  0  0  0
    2.1438   -2.9568    4.0696 H   0  0  0  0  0  0  0  0  0  0  0  0
    1.4106   -3.4799    2.5511 H   0  0  0  0  0  0  0  0  0  0  0  0
    2.9315   -2.5815    2.5331 H   0  0  0  0  0  0  0  0  0  0  0  0
   11.0215    7.4883    2.3552 H   0  0  0  0  0  0  0  0  0  0  0  0
   10.4485    9.1473    2.6183 H   0  0  0  0  0  0  0  0  0  0  0  0
    9.3890    9.1379    0.3636 H   0  0  0  0  0  0  0  0  0  0  0  0
    9.9470    7.4826    0.1004 H   0  0  0  0  0  0  0  0  0  0  0  0
   11.1186    8.7979    0.2466 H   0  0  0  0  0  0  0  0  0  0  0  0
    8.4136    4.5453    5.0615 H   0  0  0  0  0  0  0  0  0  0  0  0
    8.4041    2.2592    6.3083 H   0  0  0  0  0  0  0  0  0  0  0  0
  1  2  2  0  0  0  0
  2  3  1  0  0  0  0
  3  4  2  0  0  0  0
  4  5  1  0  0  0  0
  5  6  1  0  0  0  0
  6  7  1  0  0  0  0
  7  8  1  0  0  0  0
  8  9  1  0  0  0  0
  7 10  2  0  0  0  0
 10 11  1  0  0  0  0
 10 12  1  0  0  0  0
 12 13  1  0  0  0  0
  4 14  1  0  0  0  0
 14 15  2  0  0  0  0
 15 16  1  0  0  0  0
 16 17  1  0  0  0  0
 17 18  1  0  0  0  0
 18 19  1  0  0  0  0
 19 20  1  0  0  0  0
 20 21  1  0  0  0  0
 19 22  2  0  0  0  0
 22 23  1  0  0  0  0
 23 24  1  0  0  0  0
 22 25  1  0  0  0  0
 16 26  2  0  0  0  0
 26 27  1  0  0  0  0
 15 28  1  0  0  0  0
 28 29  2  0  0  0  0
 29 30  1  0  0  0  0
 29 31  1  0  0  0  0
 31 32  2  0  0  0  0
 32 33  1  0  0  0  0
 33 34  2  0  0  0  0
 34 35  1  0  0  0  0
 35 36  1  0  0  0  0
 36 37  1  0  0  0  0
 37 38  1  0  0  0  0
 38 39  1  0  0  0  0
 37 40  2  0  0  0  0
 40 41  1  0  0  0  0
 40 42  1  0  0  0  0
 42 43  1  0  0  0  0
 34 44  1  0  0  0  0
 44 45  2  0  0  0  0
 45 46  1  0  0  0  0
 46 47  1  0  0  0  0
 47 48  1  0  0  0  0
 48 49  1  0  0  0  0
 49 50  1  0  0  0  0
 50 51  1  0  0  0  0
 49 52  2  0  0  0  0
 52 53  1  0  0  0  0
 53 54  1  0  0  0  0
 52 55  1  0  0  0  0
 46 56  2  0  0  0  0
 56 57  1  0  0  0  0
 45 58  1  0  0  0  0
 58 59  2  0  0  0  0
 59 60  1  0  0  0  0
 59 61  1  0  0  0  0
 61 62  2  0  0  0  0
 62 63  1  0  0  0  0
 63 64  2  0  0  0  0
 64 65  1  0  0  0  0
 65 66  1  0  0  0  0
 66 67  1  0  0  0  0
 67 68  1  0  0  0  0
 68 69  1  0  0  0  0
 67 70  2  0  0  0  0
 70 71  1  0  0  0  0
 70 72  1  0  0  0  0
 72 73  1  0  0  0  0
 64 74  1  0  0  0  0
 74 75  2  0  0  0  0
 75 76  1  0  0  0  0
 76 77  1  0  0  0  0
 77 78  1  0  0  0  0
 78 79  1  0  0  0  0
 79 80  1  0  0  0  0
 80 81  1  0  0  0  0
 79 82  2  0  0  0  0
 82 83  1  0  0  0  0
 83 84  1  0  0  0  0
 82 85  1  0  0  0  0
 76 86  2  0  0  0  0
 86 87  1  0  0  0  0
 75 88  1  0  0  0  0
 88 89  2  0  0  0  0
 89 90  1  0  0  0  0
 89 91  1  0  0  0  0
 91 92  1  0  0  0  0
 92 93  1  0  0  0  0
 93 94  2  0  0  0  0
 94 95  1  0  0  0  0
 95 96  1  0  0  0  0
 96 97  1  0  0  0  0
 97 98  2  0  0  0  0
 97 99  1  0  0  0  0
 99100  2  0  0  0  0
 99101  1  0  0  0  0
 93102  1  0  0  0  0
102103  2  0  0  0  0
103104  1  0  0  0  0
104105  2  0  0  0  0
105106  1  0  0  0  0
106107  1  0  0  0  0
107108  1  0  0  0  0
108109  1  0  0  0  0
109110  1  0  0  0  0
108111  2  0  0  0  0
111112  1  0  0  0  0
111113  1  0  0  0  0
113114  1  0  0  0  0
105115  1  0  0  0  0
115116  2  0  0  0  0
116117  1  0  0  0  0
117118  1  0  0  0  0
118119  1  0  0  0  0
119120  1  0  0  0  0
120121  1  0  0  0  0
121122  1  0  0  0  0
120123  2  0  0  0  0
123124  1  0  0  0  0
124125  1  0  0  0  0
123126  1  0  0  0  0
117127  2  0  0  0  0
127128  1  0  0  0  0
116129  1  0  0  0  0
129130  2  0  0  0  0
130131  1  0  0  0  0
130132  1  0  0  0  0
132133  2  0  0  0  0
133134  1  0  0  0  0
134135  2  0  0  0  0
135136  1  0  0  0  0
136137  1  0  0  0  0
137138  1  0  0  0  0
138139  1  0  0  0  0
139140  1  0  0  0  0
138141  2  0  0  0  0
141142  1  0  0  0  0
141143  1  0  0  0  0
143144  1  0  0  0  0
135145  1  0  0  0  0
145146  2  0  0  0  0
146147  1  0  0  0  0
147148  1  0  0  0  0
148149  1  0  0  0  0
149150  1  0  0  0  0
150151  1  0  0  0  0
151152  1  0  0  0  0
150153  2  0  0  0  0
153154  1  0  0  0  0
154155  1  0  0  0  0
153156  1  0  0  0  0
147157  2  0  0  0  0
157158  1  0  0  0  0
146159  1  0  0  0  0
159160  2  0  0  0  0
160161  1  0  0  0  0
 27  1  1  0  0  0  0
 57 31  1  0  0  0  0
 87 61  1  0  0  0  0
 95 91  2  0  0  0  0
128102  1  0  0  0  0
158132  1  0  0  0  0
 26  3  1  0  0  0  0
 56 33  1  0  0  0  0
 86 63  1  0  0  0  0
101 94  1  0  0  0  0
127104  1  0  0  0  0
157134  1  0  0  0  0
 12  5  2  0  0  0  0
 30 14  1  0  0  0  0
 42 35  2  0  0  0  0
 60 44  1  0  0  0  0
 72 65  2  0  0  0  0
 90 74  1  0  0  0  0
113106  2  0  0  0  0
131115  1  0  0  0  0
143136  2  0  0  0  0
161145  1  0  0  0  0
 23 17  2  0  0  0  0
 53 47  2  0  0  0  0
 83 77  2  0  0  0  0
124118  2  0  0  0  0
154148  2  0  0  0  0
  1162  1  0  0  0  0
  2163  1  0  0  0  0
  8164  1  0  0  0  0
  8165  1  0  0  0  0
  9166  1  0  0  0  0
  9167  1  0  0  0  0
  9168  1  0  0  0  0
 20169  1  0  0  0  0
 20170  1  0  0  0  0
 21171  1  0  0  0  0
 21172  1  0  0  0  0
 21173  1  0  0  0  0
 28174  1  0  0  0  0
 32175  1  0  0  0  0
 38176  1  0  0  0  0
 38177  1  0  0  0  0
 39178  1  0  0  0  0
 39179  1  0  0  0  0
 39180  1  0  0  0  0
 50181  1  0  0  0  0
 50182  1  0  0  0  0
 51183  1  0  0  0  0
 51184  1  0  0  0  0
 51185  1  0  0  0  0
 58186  1  0  0  0  0
 62187  1  0  0  0  0
 68188  1  0  0  0  0
 68189  1  0  0  0  0
 69190  1  0  0  0  0
 69191  1  0  0  0  0
 69192  1  0  0  0  0
 80193  1  0  0  0  0
 80194  1  0  0  0  0
 81195  1  0  0  0  0
 81196  1  0  0  0  0
 81197  1  0  0  0  0
 88198  1  0  0  0  0
 96199  1  0  0  0  0
 96200  1  0  0  0  0
101201  1  0  0  0  0
101202  1  0  0  0  0
103203  1  0  0  0  0
109204  1  0  0  0  0
109205  1  0  0  0  0
110206  1  0  0  0  0
110207  1  0  0  0  0
110208  1  0  0  0  0
121209  1  0  0  0  0
121210  1  0  0  0  0
122211  1  0  0  0  0
122212  1  0  0  0  0
122213  1  0  0  0  0
129214  1  0  0  0  0
133215  1  0  0  0  0
139216  1  0  0  0  0
139217  1  0  0  0  0
140218  1  0  0  0  0
140219  1  0  0  0  0
140220  1  0  0  0  0
151221  1  0  0  0  0
151222  1  0  0  0  0
152223  1  0  0  0  0
152224  1  0  0  0  0
152225  1  0  0  0  0
159226  1  0  0  0  0
160227  1  0  0  0  0
M  END
