267

C          1.54500       -2.52260       10.17270
C          0.83520       -1.37810       10.10590
C         -0.21690       -1.42970        9.14290
C         -1.15040       -0.43060        8.82330
C         -1.09030        0.90700        9.42550
C          0.09420        1.63840        9.42820
C          0.14820        2.91020        9.96510
C         -0.98280        3.49690       10.52080
S         -1.04700        5.09390       11.26210
C          0.46140        5.92630       10.65620
C          0.39220        6.23290        9.17230
C         -2.16140        2.74780       10.51960
F         -3.27210        3.27820       11.06620
C         -2.23070        1.48310        9.98090
C         -2.11070       -0.75450        7.87500
C         -2.16290       -2.02250        7.25090
C         -1.23530       -3.02550        7.57080
C         -1.33040       -4.32970        6.90330
C         -0.26450       -4.87400        6.19620
C         -0.40940       -6.05220        5.48640
C         -1.62420       -6.72850        5.46340
S         -1.96150       -8.22210        4.59100
C         -0.59950       -8.36110        3.38640
C         -0.69060       -7.31320        2.29430
C         -2.67050       -6.19120        6.21560
C         -2.54390       -5.01720        6.91960
F         -3.85720       -6.83450        6.24020
C         -0.26750       -2.69340        8.50360
S          0.99380       -3.74850        9.08210
C         -3.14270       -2.07250        6.23260
C         -3.82360       -0.90320        6.06080
S         -3.31360        0.32460        7.20330
C         -4.72470       -0.66060        4.97810
C         -5.13650       -1.61780        4.09630
C         -5.78040       -1.09850        2.95080
C         -6.12860       -1.80320        1.78740
C         -5.78680       -3.22700        1.65700
C         -4.47530       -3.63740        1.89960
C         -4.12680       -4.96700        1.81280
C         -5.06530       -5.93780        1.47300
S         -4.50570       -7.61420        1.36360
C         -5.80080       -8.54870        2.25510
C         -5.94550       -8.07990        3.68800
C         -6.35800       -5.50880        1.18740
F         -7.30590       -6.39220        0.80970
C         -6.72550       -4.17970        1.28200
C         -6.63780       -1.05440        0.74140
C         -6.78840        0.35560        0.80360
C         -6.43540        1.05770        1.96900
C         -6.49520        2.52450        2.04090
C         -5.83430        3.32380        1.10950
C         -5.87710        4.69790        1.20680
C         -6.59440        5.32910        2.22220
S         -6.63120        7.09640        2.20390
C         -6.54460        7.56900        3.97180
C         -5.31410        7.00410        4.65220
C         -7.26330        4.51830        3.13420
C         -7.20100        3.14080        3.06730
F         -8.01180        5.05460        4.12380
C         -5.93500        0.30680        3.02060
S         -5.23580        0.94400        4.49070
C         -7.14170        0.90080       -0.45570
C         -7.19000       -0.02500       -1.45970
S         -6.95710       -1.65920       -0.86150
C         -7.05530        0.23260       -2.86020
C         -6.67530        1.42880       -3.40270
C         -6.07230        1.30410       -4.67730
C         -5.27760        2.25820       -5.33600
C         -5.03590        3.60430       -4.79930
C         -5.10240        4.72650       -5.61960
C         -4.79100        5.98300       -5.13750
C         -4.39000        6.16360       -3.81810
S         -3.96770        7.71040       -3.09270
C         -3.43360        8.71730       -4.51930
C         -2.18860        8.15800       -5.17860
C         -4.34030        5.03140       -3.00440
F         -3.97160        5.15980       -1.71400
C         -4.64420        3.77350       -3.47220
C         -4.53480        1.80230       -6.41210
C         -4.56190        0.46410       -6.87810
C         -5.40350       -0.47330       -6.25670
C         -5.40090       -1.89480       -6.63340
C         -4.22250       -2.63990       -6.64550
C         -4.23480       -3.96730       -7.01390
C         -5.41980       -4.61110       -7.37010
S         -5.29340       -6.32140       -7.79640
C         -6.56390       -6.58070       -9.08910
C         -6.34940       -5.68060      -10.28930
C         -6.59490       -3.86920       -7.29940
C         -6.59370       -2.53320       -6.94940
F         -7.79200       -4.43130       -7.57740
C         -6.11770       -0.03080       -5.15420
S         -6.90420       -1.08610       -4.00630
C         -3.48680        0.19220       -7.76370
C         -2.60720        1.22930       -7.88410
S         -3.21220        2.69620       -7.12070
C         -1.20130        1.10790       -8.10310
C         -0.26840        1.98890       -7.63760
C          0.98130        1.39030       -7.34490
C          2.02390        1.94210       -6.58470
C          1.96650        3.32360       -6.08780
C          3.02360        4.20250       -6.29470
C          2.96330        5.51240       -5.85560
C          1.84050        5.98580       -5.18640
S          1.61140        7.62710       -4.59890
C          3.14470        8.48760       -5.10820
C          3.04570        9.94090       -4.68410
C          0.80050        5.08180       -4.95610
F         -0.29430        5.50260       -4.29110
C          0.84880        3.77730       -5.38750
C          3.04410        1.07830       -6.21880
C          3.10200       -0.27660       -6.62500
C          2.07480       -0.81910       -7.41650
C          2.06950       -2.24080       -7.78560
C          3.15510       -2.82510       -8.43630
C          3.12380       -4.15490       -8.79470
C          2.02340       -4.96620       -8.50740
S          2.14160       -6.65380       -8.99930
C          0.40400       -7.23200       -9.14810
C          0.38520       -8.49410       -9.98750
C          0.96380       -4.37580       -7.82440
C          0.97440       -3.04020       -7.47910
F         -0.12230       -5.09150       -7.45320
C          1.01650        0.02310       -7.71860
S         -0.49810       -0.46710       -8.44200
C          4.13340       -0.98650       -5.95070
C          4.79560       -0.23310       -5.03230
S          4.26420        1.43860       -5.02760
C          5.70960       -0.67920       -4.01530
S          5.40120       -0.21110       -2.37020
C          6.72880       -1.17780       -1.79640
C          7.38320       -1.79170       -2.84070
C          6.78400       -1.52880       -4.09550
C          7.30820       -2.11120       -5.37570
C          8.77550       -2.42010       -5.18260
O          9.67100       -1.96110       -5.83460
C          8.95450       -3.35070       -3.98800
O          9.30130       -4.49660       -4.07640
C          8.59080       -2.66660       -2.69020
C          6.94460       -1.25440       -0.38340
C          5.99590       -1.04800        0.57310
C          6.47920       -1.17270        1.90120
C          5.76480       -1.03950        3.10330
C          4.33210       -0.71830        3.11530
C          3.82040        0.34000        2.36550
C          2.47100        0.62340        2.37960
C          1.57920       -0.13340        3.13580
S         -0.14380        0.26360        3.02740
C         -0.68550        0.26060        4.77400
C          0.11400        1.23060        5.61920
C          2.10180       -1.18870        3.87640
F          1.29190       -1.98270        4.61210
C          3.45110       -1.47720        3.88080
C          6.48320       -1.23480        4.27570
C          7.86880       -1.52400        4.29880
C          8.58100       -1.65690        3.09850
C         10.02470       -1.92720        3.08070
C         10.55150       -2.98360        2.34070
C         11.91060       -3.21080        2.31330
C         12.79780       -2.40060        3.02000
S         14.51270       -2.82450        2.94290
C         15.37560       -1.21090        2.87200
C         14.92330       -0.37670        1.69070
C         12.25450       -1.36280        3.77170
C         10.89690       -1.11570        3.79840
F         13.04370       -0.55220        4.51160
C          7.85730       -1.49800        1.92630
S          8.51050       -1.62600        0.31290
C          8.35440       -1.67010        5.63300
C          7.39940       -1.47440        6.56330
S          5.84490       -1.11030        5.89600
H          2.37980       -2.74300       10.80900
H          1.02520       -0.52200       10.72740
H          0.98360        1.21510        8.98540
H          1.08700        3.43990        9.95010
H          0.49450        6.84560       11.24090
H          1.32750        5.31990       10.91790
H          0.30750        5.31950        8.58710
H          1.29000        6.76370        8.86130
H         -0.47250        6.85660        8.95910
H         -3.16720        0.94940       10.01210
H          0.67970       -4.35250        6.17190
H          0.43780       -6.43780        4.94260
H          0.34720       -8.32780        3.92480
H         -0.72950       -9.36120        2.97310
H         -1.64200       -7.40100        1.77370
H          0.11360       -7.45800        1.57540
H         -0.60800       -6.30980        2.70820
H         -3.38600       -4.64490        7.48220
H         -3.28390       -2.93440        5.60860
H         -4.96690       -2.66790        4.24110
H         -3.72430       -2.90200        2.14650
H         -3.11370       -5.27950        2.01150
H         -6.73280       -8.47110        1.69870
H         -5.44390       -9.57760        2.21140
H         -6.29060       -7.04800        3.72670
H         -6.67190       -8.70350        4.20480
H         -4.99530       -8.14580        4.21260
H         -7.74580       -3.90330        1.06520
H         -5.24940        2.86360        0.32790
H         -5.34610        5.31010        0.49490
H         -7.46270        7.26300        4.46840
H         -6.50790        8.65790        3.93360
H         -4.41330        7.29970        4.11800
H         -5.35340        5.91710        4.68790
H         -5.25660        7.37800        5.67270
H         -7.73470        2.56000        3.80370
H         -7.29580        1.95210       -0.61450
H         -6.73880        2.35890       -2.87010
H         -5.41390        4.61660       -6.64750
H         -4.86670        6.82950       -5.80060
H         -3.23610        9.69370       -4.07700
H         -4.26700        8.81470       -5.21450
H         -1.38120        8.07570       -4.45530
H         -1.87000        8.81540       -5.98530
H         -2.37530        7.16790       -5.58890
H         -4.52930        2.92810       -2.81210
H         -3.29440       -2.17800       -6.34570
H         -3.31880       -4.53770       -7.03130
H         -7.55050       -6.44970       -8.65090
H         -6.43140       -7.62930       -9.35670
H         -7.06890       -5.92980      -11.06660
H         -5.34480       -5.80780      -10.68760
H         -6.48460       -4.63490      -10.02030
H         -7.53250       -2.00130       -6.92680
H         -3.30130       -0.77530       -8.19440
H         -0.50730        3.01120       -7.40830
H          3.90100        3.86430       -6.82510
H          3.80040        6.16370       -6.04570
H          3.23390        8.40270       -6.19140
H          3.98580        7.99530       -4.61970
H          3.94860       10.47340       -4.97460
H          2.92740       10.01570       -3.60570
H          2.19080       10.41790       -5.15770
H          0.02670        3.11880       -5.15540
H          4.01480       -2.22180       -8.68640
H          3.95880       -4.59960       -9.31370
H          0.01530       -7.42040       -8.14880
H         -0.16460       -6.43430       -9.62340
H         -0.63720       -8.85300      -10.08210
H          0.98580       -9.27190       -9.52130
H          0.78300       -8.30040      -10.98120
H          0.12940       -2.64650       -6.93720
H          4.29970       -2.04070       -6.07900
H          6.78660       -3.04840       -5.59790
H          7.16320       -1.42270       -6.21050
H          9.45220       -2.05280       -2.39990
H          8.45000       -3.41690       -1.90700
H          4.96900       -0.84210        0.33040
H          4.49010        0.96230        1.79200
H          2.07930        1.44430        1.79960
H         -1.72820        0.56980        4.70660
H         -0.63830       -0.75550        5.16130
H         -0.32150        1.29400        6.61420
H          1.14800        0.90230        5.71310
H          0.10320        2.22230        5.17160
H          3.79790       -2.31970        4.45840
H          9.88970       -3.63670        1.79330
H         12.31550       -4.02900        1.73870
H         15.23740       -0.69080        3.81730
H         16.42310       -1.49590        2.77370
H         13.87550       -0.09870        1.78900
H         15.04790       -0.93000        0.76220
H         15.51620        0.53410        1.63790
H         10.53160       -0.28070        4.37650
H          9.37190       -1.92480        5.86670
H          7.49710       -1.52650        7.63010
