257

C         -1.26780       -3.48830       11.28950
C         -0.43420       -2.97210       10.36350
C         -0.79430       -3.32980        9.03090
C         -0.16960       -2.97410        7.82280
C          0.94550       -2.03910        7.79230
S          2.36240       -2.20500        8.78970
C          3.03860       -0.70820        8.23240
C          4.30890       -0.15630        8.78460
C          5.49920       -0.33170        7.83960
C          2.21560       -0.14130        7.30540
Cl         2.53860        1.34830        6.51320
C          1.02750       -0.88150        7.06650
Cl        -0.23410       -0.26820        6.08560
C         -0.73330       -3.47380        6.65220
C         -1.93660       -4.22260        6.63290
C         -2.57370       -4.55040        7.83760
C         -3.82850       -5.28350        7.85270
S         -5.23740       -4.63380        8.63480
C         -6.19880       -6.00820        8.21200
C         -7.61230       -6.12770        8.66360
C         -7.68180       -6.68950       10.08560
C         -5.45560       -6.91090        7.51160
C         -4.11340       -6.49810        7.29600
Cl        -2.95970       -7.47180        6.47790
Cl        -6.06290       -8.40850        6.93280
C         -1.97020       -4.11540        9.01020
S         -2.55420       -4.42830       10.62020
C         -2.38170       -4.48490        5.30940
C         -1.52670       -4.03580        4.35370
S         -0.11820       -3.24840        5.04170
C         -1.64210       -4.09690        2.92740
C         -0.60560       -4.14260        2.05070
C         -1.00470       -4.13100        0.69400
C         -0.17380       -4.17640       -0.43600
C          1.27030       -4.29730       -0.31680
S          2.32380       -3.11400       -1.03890
C          3.74150       -3.87380       -0.40420
C          5.08600       -3.26620       -0.60010
C          5.34660       -2.16410        0.42840
C          3.40470       -4.98660        0.30660
Cl         4.54630       -6.00730        1.07860
C          2.00520       -5.22880        0.36100
Cl         1.32880       -6.58830        1.16080
C         -0.79360       -4.00540       -1.66360
C         -2.18440       -3.79270       -1.81330
C         -3.02960       -3.88410       -0.68820
C         -4.46960       -3.85150       -0.85480
S         -5.51860       -2.91810        0.17360
C         -6.93190       -3.39500       -0.70150
C         -8.27590       -2.84530       -0.37860
C         -8.58250       -1.62370       -1.24820
C         -6.59990       -4.24550       -1.71450
C         -5.21000       -4.51560       -1.79940
Cl        -4.57450       -5.64840       -2.92230
Cl        -7.74220       -4.93590       -2.79310
C         -2.41000       -4.02340        0.55110
S         -3.19570       -4.04250        2.11060
C         -2.51320       -3.42710       -3.14970
C         -1.45110       -3.45870       -3.99580
S          0.03200       -3.95540       -3.18880
C         -1.24990       -2.94890       -5.32220
C         -0.27880       -3.35430       -6.18340
C          0.08830       -2.37240       -7.13710
C          1.23220       -2.42530       -7.96190
C          1.88150       -3.68830       -8.22180
C          1.26440       -4.89490       -8.41480
C          2.18780       -5.93340       -8.63160
F          1.79750       -7.20130       -8.85750
C          3.50040       -5.56370       -8.60370
C          4.70600       -6.41900       -8.78440
C          5.60180       -6.40470       -7.54610
S          3.61450       -3.86220       -8.30560
C          1.73630       -1.19040       -8.34870
C          1.05580        0.03110       -8.12380
C         -0.23600        0.04030       -7.54320
C         -0.99290        1.26360       -7.42600
S         -0.80510        2.53150       -8.61350
C         -1.94090        3.55830       -7.81890
C         -2.20790        4.95020       -8.27350
C         -1.48510        5.97420       -7.38300
C          0.02890        5.80870       -7.41720
C         -2.43100        2.91900       -6.71650
C         -1.92020        1.63090       -6.48610
F         -3.34280        3.47760       -5.89880
C         -0.63920       -1.17050       -6.97470
S         -1.89840       -1.38230       -5.77670
C          1.93440        1.14100       -8.23670
C          3.23120        0.78600       -8.47740
S          3.37970       -0.91800       -8.86790
C          4.36170        1.45830       -7.90810
C          5.28280        0.77910       -7.16240
C          5.82110        1.54310       -6.10020
C          6.40360        1.00200       -4.93540
C          6.69980       -0.42000       -4.90980
S          5.89510       -1.48880       -3.79850
C          6.52370       -2.90280       -4.58000
C          6.11880       -4.26660       -4.14030
C          4.61510       -4.48150       -4.32630
C          7.32860       -2.54740       -5.62090
Cl         8.14850       -3.66390       -6.63360
C          7.42480       -1.14300       -5.81520
Cl         8.37710       -0.43660       -7.05520
C          6.40030        1.81530       -3.81270
C          6.01340        3.17710       -3.86520
C          5.56310        3.75850       -5.07040
C          5.16220        5.15070       -5.10290
S          3.65870        5.67810       -5.80010
C          3.96300        7.33440       -5.40180
C          3.01330        8.41000       -5.79720
C          3.05020        8.64610       -7.30820
C          5.16510        7.45740       -4.77000
C          5.84440        6.22420       -4.59280
Cl         7.40620        6.12760       -3.88540
Cl         5.81750        8.95000       -4.22640
C          5.37490        2.88560       -6.13440
S          4.33270        3.16640       -7.51110
C          5.79740        3.70850       -2.57370
C          5.92790        2.78940       -1.56870
S          6.57660        1.27040       -2.16340
C          5.20780        2.85570       -0.33310
C          4.22140        3.77530       -0.11080
C          3.24180        3.34060        0.80720
C          1.94340        3.85760        0.92280
C          1.52040        4.97700        0.08980
S          0.91610        6.46360        0.75000
C          0.67570        7.15270       -0.81890
C          0.20290        8.55340       -0.99790
C          1.38400        9.49760       -1.23920
C          1.04500        6.26600       -1.78610
Cl         0.93000        6.57970       -3.46520
C          1.52500        5.03150       -1.27710
Cl         2.01190        3.73680       -2.30260
C          1.05420        3.13910        1.70250
C          1.41730        1.96510        2.40970
C          2.71250        1.43370        2.26690
C          3.08610        0.14940        2.84560
S          4.49920       -0.01070        3.84270
C          4.30180       -1.72110        3.99070
C          5.26310       -2.56430        4.75750
C          4.58870       -3.28750        5.92430
C          3.19470       -2.12660        3.30670
C          2.49700       -1.07170        2.66220
Cl         1.10940       -1.33920        1.68330
Cl         2.73580       -3.76920        3.17590
C          3.58700        2.11750        1.43000
S          5.09970        1.51260        0.79370
C          0.29310        1.37940        3.05410
C         -0.87830        2.00330        2.76570
S         -0.65500        3.43650        1.78010
C         -2.23150        1.57790        3.01090
C         -3.19100        1.49640        2.05090
C         -4.43130        1.00150        2.52690
C         -5.60890        0.78590        1.79280
C         -5.62370        0.91840        0.34620
S         -4.42040        0.10840       -0.62040
C         -5.14460        0.62370       -2.10270
C         -4.61730        0.17060       -3.41940
C         -5.45870       -0.98480       -3.96770
C         -6.24170        1.39320       -1.85110
Cl        -7.21690        2.09270       -3.07620
C         -6.51350        1.56650       -0.46670
Cl        -7.78620        2.56840        0.09050
C         -6.72680        0.37920        2.51460
C         -6.70560        0.17940        3.91610
C         -5.51730        0.36000        4.63990
C         -5.46200        0.15110        6.07770
S         -6.54180        0.97150        7.16690
C         -5.81090        0.25230        8.56230
C         -6.27030        0.58820        9.93770
C         -5.58410        1.85590       10.45210
C         -4.78670       -0.56510        8.18970
C         -4.59200       -0.62930        6.78490
Cl        -3.44040       -1.66670        6.06450
Cl        -3.80990       -1.44780        9.28860
C         -4.39570        0.75740        3.92010
S         -2.81310        1.07210        4.57620
C         -7.96590       -0.27660        4.40280
C         -8.88300       -0.41990        3.42520
S         -8.28940       -0.00530        1.85640
H         -1.21690       -3.37580       12.35480
H          0.41310       -2.35890       10.60800
H          4.15840        0.91120        8.96580
H          4.52380       -0.64220        9.73750
H          5.75010       -1.38300        7.73380
H          5.26930        0.07940        6.85980
H          6.36380        0.19020        8.24090
H         -8.08590       -5.14470        8.63770
H         -8.14450       -6.79230        7.98060
H         -8.71710       -6.77180       10.40510
H         -7.15260       -6.03570       10.77490
H         -7.22590       -7.67560       10.12310
H         -3.30740       -4.97920        5.07630
H          0.41790       -4.18000        2.36860
H          5.84290       -4.04640       -0.50020
H          5.14550       -2.83180       -1.59910
H          5.35140       -2.57600        1.43380
H          4.57230       -1.40370        0.36750
H          6.30610       -1.69290        0.23670
H         -9.02670       -3.61700       -0.55960
H         -8.30810       -2.56140        0.67350
H         -9.56110       -1.22450       -0.99780
H         -7.84080       -0.84680       -1.08210
H         -8.57300       -1.89700       -2.30000
H         -3.49370       -3.11740       -3.46030
H          0.24960       -4.28270       -6.06190
H          0.19970       -5.03620       -8.43900
H          4.37340       -7.43770       -8.99550
H          5.27920       -6.06110       -9.64420
H          5.05550       -6.76360       -6.67690
H          5.95030       -5.39400       -7.34820
H          6.46540       -7.04560       -7.70290
H         -1.87440        5.06400       -9.30630
H         -3.28320        5.14150       -8.23000
H         -1.84130        5.86680       -6.35680
H         -1.75130        6.97510       -7.72770
H          0.32750        4.85050       -6.99870
H          0.50520        6.58990       -6.83090
H          0.39980        5.86790       -8.43820
H         -2.20670        1.04510       -5.63440
H          1.66700        2.14540       -7.96340
H          5.42930       -0.28100       -7.25990
H          6.67470       -4.99740       -4.72970
H          6.37550       -4.40680       -3.08810
H          4.33840       -5.48020       -3.99970
H          4.34350       -4.36690       -5.37280
H          4.04880       -3.75850       -3.74370
H          3.28750        9.32610       -5.27140
H          2.00090        8.13020       -5.49930
H          2.34470        9.42630       -7.58130
H          4.04600        8.95300       -7.61790
H          2.78730        7.73350       -7.83790
H          5.42120        4.70110       -2.41420
H          4.12710        4.68890       -0.66540
H         -0.47210        8.59230       -1.85590
H         -0.34350        8.86730       -0.10770
H          2.06270        9.47890       -0.38990
H          1.02660       10.51430       -1.37740
H          1.93170        9.19610       -2.12880
H          6.06840       -1.92820        5.12720
H          5.69930       -3.30750        4.08310
H          4.06420       -2.57670        6.55510
H          3.87010       -4.01690        5.56420
H          5.33450       -3.80740        6.51980
H          0.34990        0.49300        3.65730
H         -3.00960        1.77500        1.02900
H         -3.58190       -0.15370       -3.30050
H         -4.64730        1.00470       -4.12380
H         -5.49120       -1.80390       -3.25180
H         -5.03150       -1.34410       -4.90050
H         -6.47670       -0.65390       -4.15390
H         -7.35140        0.73760        9.93250
H         -6.03410       -0.24910       10.59710
H         -5.81420        2.69900        9.80490
H         -4.50610        1.71770       10.47330
H         -5.92690        2.08360       11.45770
H         -8.15880       -0.49170        5.43750
H         -9.90040       -0.74600        3.51840
