
  xtb     03042216073D
 energy: -433.070299461235 gnorm: 0.000240575141 xtb: 6.4.1 (unknown)
252275  0     0  0            999 V2000
    4.7752   -9.7913    7.3200 C   0  0  0  0  0  0  0  0  0  0  0  0
    4.5563   -8.4617    7.2990 C   0  0  0  0  0  0  0  0  0  0  0  0
    3.5952   -8.0738    6.3184 C   0  0  0  0  0  0  0  0  0  0  0  0
    3.1238   -6.7869    6.0298 C   0  0  0  0  0  0  0  0  0  0  0  0
    3.6366   -5.5946    6.7209 C   0  0  0  0  0  0  0  0  0  0  0  0
    4.2299   -4.5720    5.9879 C   0  0  0  0  0  0  0  0  0  0  0  0
    4.7275   -3.4421    6.6079 C   0  0  0  0  0  0  0  0  0  0  0  0
    4.6251   -3.2857    7.9859 C   0  0  0  0  0  0  0  0  0  0  0  0
    5.1614   -1.8793    8.8967 S   0  0  0  0  0  0  0  0  0  0  0  0
    5.8109   -0.7516    7.6080 C   0  0  0  0  0  0  0  0  0  0  0  0
    6.2988    0.5176    8.2817 C   0  0  0  0  0  0  0  0  0  0  0  0
    4.0305   -4.3234    8.7081 C   0  0  0  0  0  0  0  0  0  0  0  0
    3.9173   -4.2043   10.0471 F   0  0  0  0  0  0  0  0  0  0  0  0
    3.5495   -5.4636    8.1043 C   0  0  0  0  0  0  0  0  0  0  0  0
    2.1777   -6.6813    5.0233 C   0  0  0  0  0  0  0  0  0  0  0  0
    1.7066   -7.7890    4.2770 C   0  0  0  0  0  0  0  0  0  0  0  0
    2.1870   -9.0779    4.5577 C   0  0  0  0  0  0  0  0  0  0  0  0
    1.7180  -10.2486    3.8073 C   0  0  0  0  0  0  0  0  0  0  0  0
    2.6200  -11.1518    3.2537 C   0  0  0  0  0  0  0  0  0  0  0  0
    2.1868  -12.2519    2.5390 C   0  0  0  0  0  0  0  0  0  0  0  0
    0.8304  -12.4887    2.3496 C   0  0  0  0  0  0  0  0  0  0  0  0
    0.1319  -13.8510    1.4784 S   0  0  0  0  0  0  0  0  0  0  0  0
    1.5578  -14.6574    0.6727 C   0  0  0  0  0  0  0  0  0  0  0  0
    2.0792  -13.8639   -0.5108 C   0  0  0  0  0  0  0  0  0  0  0  0
   -0.0637  -11.5802    2.9203 C   0  0  0  0  0  0  0  0  0  0  0  0
    0.3542  -10.4811    3.6347 C   0  0  0  0  0  0  0  0  0  0  0  0
   -1.3888  -11.7844    2.7674 F   0  0  0  0  0  0  0  0  0  0  0  0
    3.1219   -9.1844    5.5792 C   0  0  0  0  0  0  0  0  0  0  0  0
    3.8494  -10.6661    6.1474 S   0  0  0  0  0  0  0  0  0  0  0  0
    0.7894   -7.3887    3.2702 C   0  0  0  0  0  0  0  0  0  0  0  0
    0.5165   -6.0541    3.2792 C   0  0  0  0  0  0  0  0  0  0  0  0
    1.4045   -5.1998    4.5262 S   0  0  0  0  0  0  0  0  0  0  0  0
   -0.3053   -5.3222    2.3705 C   0  0  0  0  0  0  0  0  0  0  0  0
   -0.7209   -4.0282    2.4703 C   0  0  0  0  0  0  0  0  0  0  0  0
   -1.3838   -3.5427    1.3122 C   0  0  0  0  0  0  0  0  0  0  0  0
   -1.8539   -2.2427    1.0307 C   0  0  0  0  0  0  0  0  0  0  0  0
   -1.8784   -1.1770    2.0395 C   0  0  0  0  0  0  0  0  0  0  0  0
   -0.8320   -0.9677    2.9342 C   0  0  0  0  0  0  0  0  0  0  0  0
   -0.8975    0.0136    3.9018 C   0  0  0  0  0  0  0  0  0  0  0  0
   -2.0089    0.8390    4.0143 C   0  0  0  0  0  0  0  0  0  0  0  0
   -2.1568    2.1145    5.2187 S   0  0  0  0  0  0  0  0  0  0  0  0
   -1.0725    1.5013    6.5669 C   0  0  0  0  0  0  0  0  0  0  0  0
   -1.3656    2.2862    7.8306 C   0  0  0  0  0  0  0  0  0  0  0  0
   -3.0434    0.6415    3.0995 C   0  0  0  0  0  0  0  0  0  0  0  0
   -4.1409    1.4181    3.1678 F   0  0  0  0  0  0  0  0  0  0  0  0
   -2.9954   -0.3447    2.1394 C   0  0  0  0  0  0  0  0  0  0  0  0
   -2.3228   -2.0259   -0.2617 C   0  0  0  0  0  0  0  0  0  0  0  0
   -2.4403   -3.0520   -1.2326 C   0  0  0  0  0  0  0  0  0  0  0  0
   -2.0505   -4.3635   -0.9232 C   0  0  0  0  0  0  0  0  0  0  0  0
   -2.1698   -5.4523   -1.8978 C   0  0  0  0  0  0  0  0  0  0  0  0
   -2.7756   -6.6544   -1.5462 C   0  0  0  0  0  0  0  0  0  0  0  0
   -2.9105   -7.6840   -2.4580 C   0  0  0  0  0  0  0  0  0  0  0  0
   -2.4438   -7.5452   -3.7596 C   0  0  0  0  0  0  0  0  0  0  0  0
   -2.5530   -8.7602   -5.0294 S   0  0  0  0  0  0  0  0  0  0  0  0
   -3.5664  -10.0929   -4.3011 C   0  0  0  0  0  0  0  0  0  0  0  0
   -5.0400   -9.7367   -4.2372 C   0  0  0  0  0  0  0  0  0  0  0  0
   -1.8170   -6.3416   -4.0902 C   0  0  0  0  0  0  0  0  0  0  0  0
   -1.6744   -5.3091   -3.1931 C   0  0  0  0  0  0  0  0  0  0  0  0
   -1.3312   -6.1817   -5.3400 F   0  0  0  0  0  0  0  0  0  0  0  0
   -1.5072   -4.5622    0.3336 C   0  0  0  0  0  0  0  0  0  0  0  0
   -0.8052   -6.0662    0.8676 S   0  0  0  0  0  0  0  0  0  0  0  0
   -2.9451   -2.5778   -2.4656 C   0  0  0  0  0  0  0  0  0  0  0  0
   -3.1265   -1.2260   -2.4948 C   0  0  0  0  0  0  0  0  0  0  0  0
   -2.7507   -0.4768   -0.9534 S   0  0  0  0  0  0  0  0  0  0  0  0
   -3.5371   -0.4584   -3.6209 C   0  0  0  0  0  0  0  0  0  0  0  0
   -3.5018    1.2893   -3.6002 S   0  0  0  0  0  0  0  0  0  0  0  0
   -3.9497   -0.8902   -4.8604 C   0  0  0  0  0  0  0  0  0  0  0  0
   -4.0818   -2.1973   -5.5871 C   0  0  0  0  0  0  0  0  0  0  0  0
   -4.7937   -3.2089   -4.8855 N   0  0  0  0  0  0  0  0  0  0  0  0
   -4.7900   -4.5203   -5.5213 C   0  0  0  0  0  0  0  0  0  0  0  0
   -5.4070   -5.5504   -4.5867 C   0  0  0  0  0  0  0  0  0  0  0  0
   -4.7340   -1.8238   -6.8289 O   0  0  0  0  0  0  0  0  0  0  0  0
   -4.6429   -0.4404   -7.0692 C   0  0  0  0  0  0  0  0  0  0  0  0
   -3.6673   -0.1399   -8.0268 O   0  0  0  0  0  0  0  0  0  0  0  0
   -4.2538    0.1494   -5.7486 C   0  0  0  0  0  0  0  0  0  0  0  0
   -4.0248    1.4147   -5.2672 C   0  0  0  0  0  0  0  0  0  0  0  0
   -4.0390    2.6438   -5.9793 C   0  0  0  0  0  0  0  0  0  0  0  0
   -3.4111    3.7476   -5.5198 C   0  0  0  0  0  0  0  0  0  0  0  0
   -3.2351    4.9679   -6.2203 C   0  0  0  0  0  0  0  0  0  0  0  0
   -2.2116    6.1756   -5.4782 S   0  0  0  0  0  0  0  0  0  0  0  0
   -3.6662    5.4377   -7.4378 C   0  0  0  0  0  0  0  0  0  0  0  0
   -4.5160    4.9304   -8.5601 C   0  0  0  0  0  0  0  0  0  0  0  0
   -5.7825    4.4445   -8.1276 N   0  0  0  0  0  0  0  0  0  0  0  0
   -6.5916    3.8024   -9.1534 C   0  0  0  0  0  0  0  0  0  0  0  0
   -7.8584    3.2401   -8.5252 C   0  0  0  0  0  0  0  0  0  0  0  0
   -4.6301    6.0803   -9.4410 O   0  0  0  0  0  0  0  0  0  0  0  0
   -3.7207    7.1006   -9.1011 C   0  0  0  0  0  0  0  0  0  0  0  0
   -2.6638    7.1772  -10.0145 O   0  0  0  0  0  0  0  0  0  0  0  0
   -3.1987    6.7198   -7.7482 C   0  0  0  0  0  0  0  0  0  0  0  0
   -2.3546    7.2912   -6.8199 C   0  0  0  0  0  0  0  0  0  0  0  0
   -1.6304    8.5098   -7.0110 C   0  0  0  0  0  0  0  0  0  0  0  0
   -0.6201    9.0470   -6.2942 C   0  0  0  0  0  0  0  0  0  0  0  0
   -0.1198    8.5294   -5.0491 C   0  0  0  0  0  0  0  0  0  0  0  0
   -0.8510    8.0521   -4.0090 C   0  0  0  0  0  0  0  0  0  0  0  0
   -0.0843    7.3843   -3.0191 C   0  0  0  0  0  0  0  0  0  0  0  0
   -0.5647    6.5499   -2.0004 C   0  0  0  0  0  0  0  0  0  0  0  0
   -2.0018    6.2710   -1.8869 C   0  0  0  0  0  0  0  0  0  0  0  0
   -2.4539    4.9535   -1.9513 C   0  0  0  0  0  0  0  0  0  0  0  0
   -3.8019    4.6745   -2.0176 C   0  0  0  0  0  0  0  0  0  0  0  0
   -4.7469    5.6951   -2.0192 C   0  0  0  0  0  0  0  0  0  0  0  0
   -6.4522    5.2512   -2.1931 S   0  0  0  0  0  0  0  0  0  0  0  0
   -7.0198    6.4167   -3.4877 C   0  0  0  0  0  0  0  0  0  0  0  0
   -6.1985    6.2970   -4.7568 C   0  0  0  0  0  0  0  0  0  0  0  0
   -4.2873    6.9997   -1.8710 C   0  0  0  0  0  0  0  0  0  0  0  0
   -5.1567    8.0317   -1.7974 F   0  0  0  0  0  0  0  0  0  0  0  0
   -2.9401    7.2951   -1.8170 C   0  0  0  0  0  0  0  0  0  0  0  0
    0.3896    5.8781   -1.2525 C   0  0  0  0  0  0  0  0  0  0  0  0
    1.7816    5.9956   -1.4776 C   0  0  0  0  0  0  0  0  0  0  0  0
    2.2563    6.7838   -2.5386 C   0  0  0  0  0  0  0  0  0  0  0  0
    3.6802    6.8294   -2.8909 C   0  0  0  0  0  0  0  0  0  0  0  0
    4.4130    5.6566   -3.0497 C   0  0  0  0  0  0  0  0  0  0  0  0
    5.7463    5.6885   -3.4093 C   0  0  0  0  0  0  0  0  0  0  0  0
    6.3962    6.8980   -3.6261 C   0  0  0  0  0  0  0  0  0  0  0  0
    8.0931    7.0833   -4.0629 S   0  0  0  0  0  0  0  0  0  0  0  0
    8.5961    5.4189   -4.6221 C   0  0  0  0  0  0  0  0  0  0  0  0
    7.9571    5.0368   -5.9437 C   0  0  0  0  0  0  0  0  0  0  0  0
    5.6502    8.0663   -3.4583 C   0  0  0  0  0  0  0  0  0  0  0  0
    4.3201    8.0483   -3.1047 C   0  0  0  0  0  0  0  0  0  0  0  0
    6.2519    9.2574   -3.6467 F   0  0  0  0  0  0  0  0  0  0  0  0
    1.3030    7.4597   -3.2894 C   0  0  0  0  0  0  0  0  0  0  0  0
    1.6055    8.3374   -4.7709 S   0  0  0  0  0  0  0  0  0  0  0  0
    2.5304    5.2039   -0.5561 C   0  0  0  0  0  0  0  0  0  0  0  0
    1.7550    4.4995    0.2996 C   0  0  0  0  0  0  0  0  0  0  0  0
    0.0402    4.7851    0.0550 S   0  0  0  0  0  0  0  0  0  0  0  0
    2.0983    3.5423    1.3337 C   0  0  0  0  0  0  0  0  0  0  0  0
    2.2048    2.1994    1.1940 C   0  0  0  0  0  0  0  0  0  0  0  0
    2.3134    1.5018    2.4310 C   0  0  0  0  0  0  0  0  0  0  0  0
    2.3639    0.1162    2.6497 C   0  0  0  0  0  0  0  0  0  0  0  0
    2.2148   -0.8631    1.5668 C   0  0  0  0  0  0  0  0  0  0  0  0
    1.2408   -0.7053    0.5767 C   0  0  0  0  0  0  0  0  0  0  0  0
    1.0380   -1.6812   -0.3710 C   0  0  0  0  0  0  0  0  0  0  0  0
    1.7787   -2.8661   -0.3830 C   0  0  0  0  0  0  0  0  0  0  0  0
    1.3710   -4.0067   -1.6616 S   0  0  0  0  0  0  0  0  0  0  0  0
    2.1047   -5.6124   -1.1623 C   0  0  0  0  0  0  0  0  0  0  0  0
    1.4721   -6.7122   -1.9920 C   0  0  0  0  0  0  0  0  0  0  0  0
    2.7641   -2.9973    0.5900 C   0  0  0  0  0  0  0  0  0  0  0  0
    3.5696   -4.0849    0.6393 F   0  0  0  0  0  0  0  0  0  0  0  0
    2.9798   -2.0246    1.5464 C   0  0  0  0  0  0  0  0  0  0  0  0
    2.4436   -0.2957    3.9777 C   0  0  0  0  0  0  0  0  0  0  0  0
    2.4568    0.6021    5.0720 C   0  0  0  0  0  0  0  0  0  0  0  0
    2.4072    1.9858    4.8497 C   0  0  0  0  0  0  0  0  0  0  0  0
    2.3920    2.9374    5.9678 C   0  0  0  0  0  0  0  0  0  0  0  0
    1.4178    3.9305    6.0627 C   0  0  0  0  0  0  0  0  0  0  0  0
    1.4111    4.8024    7.1295 C   0  0  0  0  0  0  0  0  0  0  0  0
    2.3644    4.7234    8.1442 C   0  0  0  0  0  0  0  0  0  0  0  0
    2.2008    5.8606    9.4871 S   0  0  0  0  0  0  0  0  0  0  0  0
    3.9219    6.2935    9.9361 C   0  0  0  0  0  0  0  0  0  0  0  0
    4.6815    6.8863    8.7666 C   0  0  0  0  0  0  0  0  0  0  0  0
    3.3218    3.7190    8.0410 C   0  0  0  0  0  0  0  0  0  0  0  0
    3.3499    2.8471    6.9719 C   0  0  0  0  0  0  0  0  0  0  0  0
    4.2667    3.5507    8.9948 F   0  0  0  0  0  0  0  0  0  0  0  0
    2.3203    2.3978    3.5276 C   0  0  0  0  0  0  0  0  0  0  0  0
    2.1780    4.0535    3.0048 S   0  0  0  0  0  0  0  0  0  0  0  0
    2.3761   -0.0874    6.3220 C   0  0  0  0  0  0  0  0  0  0  0  0
    2.2998   -1.4254    6.1804 C   0  0  0  0  0  0  0  0  0  0  0  0
    2.3601   -1.9521    4.5354 S   0  0  0  0  0  0  0  0  0  0  0  0
    5.4399  -10.3408    7.9576 H   0  0  0  0  0  0  0  0  0  0  0  0
    5.0516   -7.7621    7.9475 H   0  0  0  0  0  0  0  0  0  0  0  0
    4.3154   -4.6664    4.9162 H   0  0  0  0  0  0  0  0  0  0  0  0
    5.1898   -2.6775    6.0058 H   0  0  0  0  0  0  0  0  0  0  0  0
    6.6298   -1.2578    7.0964 H   0  0  0  0  0  0  0  0  0  0  0  0
    5.0005   -0.5428    6.9081 H   0  0  0  0  0  0  0  0  0  0  0  0
    7.0963    0.2913    8.9854 H   0  0  0  0  0  0  0  0  0  0  0  0
    5.4920    1.0000    8.8286 H   0  0  0  0  0  0  0  0  0  0  0  0
    6.6825    1.2105    7.5352 H   0  0  0  0  0  0  0  0  0  0  0  0
    3.0892   -6.2289    8.7096 H   0  0  0  0  0  0  0  0  0  0  0  0
    3.6801  -10.9844    3.3663 H   0  0  0  0  0  0  0  0  0  0  0  0
    2.9226  -12.9264    2.1331 H   0  0  0  0  0  0  0  0  0  0  0  0
    2.3239  -14.8410    1.4248 H   0  0  0  0  0  0  0  0  0  0  0  0
    1.1563  -15.6170    0.3470 H   0  0  0  0  0  0  0  0  0  0  0  0
    2.9058  -14.3961   -0.9777 H   0  0  0  0  0  0  0  0  0  0  0  0
    2.4282  -12.8809   -0.2021 H   0  0  0  0  0  0  0  0  0  0  0  0
    1.2912  -13.7302   -1.2481 H   0  0  0  0  0  0  0  0  0  0  0  0
   -0.3831   -9.8261    4.0718 H   0  0  0  0  0  0  0  0  0  0  0  0
    0.3556   -8.0625    2.5530 H   0  0  0  0  0  0  0  0  0  0  0  0
   -0.5424   -3.4530    3.3591 H   0  0  0  0  0  0  0  0  0  0  0  0
    0.0654   -1.5567    2.8550 H   0  0  0  0  0  0  0  0  0  0  0  0
   -0.0680    0.1438    4.5752 H   0  0  0  0  0  0  0  0  0  0  0  0
   -1.2889    0.4414    6.6996 H   0  0  0  0  0  0  0  0  0  0  0  0
   -0.0343    1.6353    6.2664 H   0  0  0  0  0  0  0  0  0  0  0  0
   -1.1637    3.3434    7.6772 H   0  0  0  0  0  0  0  0  0  0  0  0
   -0.7348    1.9281    8.6414 H   0  0  0  0  0  0  0  0  0  0  0  0
   -2.4074    2.1704    8.1193 H   0  0  0  0  0  0  0  0  0  0  0  0
   -3.8500   -0.4730    1.4947 H   0  0  0  0  0  0  0  0  0  0  0  0
   -3.1677   -6.7836   -0.5489 H   0  0  0  0  0  0  0  0  0  0  0  0
   -3.3855   -8.5966   -2.1390 H   0  0  0  0  0  0  0  0  0  0  0  0
   -3.1546  -10.3469   -3.3254 H   0  0  0  0  0  0  0  0  0  0  0  0
   -3.4030  -10.9339   -4.9750 H   0  0  0  0  0  0  0  0  0  0  0  0
   -5.4190   -9.5296   -5.2354 H   0  0  0  0  0  0  0  0  0  0  0  0
   -5.6025  -10.5692   -3.8188 H   0  0  0  0  0  0  0  0  0  0  0  0
   -5.2069   -8.8583   -3.6177 H   0  0  0  0  0  0  0  0  0  0  0  0
   -1.1520   -4.4147   -3.4916 H   0  0  0  0  0  0  0  0  0  0  0  0
   -3.1884   -3.2058   -3.3006 H   0  0  0  0  0  0  0  0  0  0  0  0
   -3.0812   -2.5964   -5.8281 H   0  0  0  0  0  0  0  0  0  0  0  0
   -5.7471   -2.9103   -4.7045 H   0  0  0  0  0  0  0  0  0  0  0  0
   -5.3239   -4.5131   -6.4817 H   0  0  0  0  0  0  0  0  0  0  0  0
   -3.7469   -4.7813   -5.7204 H   0  0  0  0  0  0  0  0  0  0  0  0
   -5.3179   -6.5411   -5.0237 H   0  0  0  0  0  0  0  0  0  0  0  0
   -6.4603   -5.3365   -4.4199 H   0  0  0  0  0  0  0  0  0  0  0  0
   -4.8947   -5.5391   -3.6275 H   0  0  0  0  0  0  0  0  0  0  0  0
   -5.6333   -0.0996   -7.4242 H   0  0  0  0  0  0  0  0  0  0  0  0
   -3.7687   -0.7549   -8.7629 H   0  0  0  0  0  0  0  0  0  0  0  0
   -4.5051    2.6388   -6.9531 H   0  0  0  0  0  0  0  0  0  0  0  0
   -2.9390    3.7126   -4.5452 H   0  0  0  0  0  0  0  0  0  0  0  0
   -4.0085    4.1211   -9.1096 H   0  0  0  0  0  0  0  0  0  0  0  0
   -6.3105    5.1923   -7.6878 H   0  0  0  0  0  0  0  0  0  0  0  0
   -5.9920    2.9894   -9.5744 H   0  0  0  0  0  0  0  0  0  0  0  0
   -6.8479    4.4930   -9.9700 H   0  0  0  0  0  0  0  0  0  0  0  0
   -7.6018    2.5723   -7.7069 H   0  0  0  0  0  0  0  0  0  0  0  0
   -8.4789    4.0427   -8.1327 H   0  0  0  0  0  0  0  0  0  0  0  0
   -8.4320    2.6899   -9.2661 H   0  0  0  0  0  0  0  0  0  0  0  0
   -4.2798    8.0560   -9.0964 H   0  0  0  0  0  0  0  0  0  0  0  0
   -3.0299    7.1218  -10.9050 H   0  0  0  0  0  0  0  0  0  0  0  0
   -1.8928    8.9947   -7.9431 H   0  0  0  0  0  0  0  0  0  0  0  0
   -0.0911    9.8922   -6.7132 H   0  0  0  0  0  0  0  0  0  0  0  0
   -1.9153    8.1767   -3.9492 H   0  0  0  0  0  0  0  0  0  0  0  0
   -1.7435    4.1427   -1.9968 H   0  0  0  0  0  0  0  0  0  0  0  0
   -4.1449    3.6547   -2.0955 H   0  0  0  0  0  0  0  0  0  0  0  0
   -7.0019    7.4275   -3.0854 H   0  0  0  0  0  0  0  0  0  0  0  0
   -8.0549    6.1217   -3.6587 H   0  0  0  0  0  0  0  0  0  0  0  0
   -6.6150    6.9464   -5.5251 H   0  0  0  0  0  0  0  0  0  0  0  0
   -6.1970    5.2712   -5.1207 H   0  0  0  0  0  0  0  0  0  0  0  0
   -5.1668    6.5965   -4.5797 H   0  0  0  0  0  0  0  0  0  0  0  0
   -2.6352    8.3240   -1.7027 H   0  0  0  0  0  0  0  0  0  0  0  0
    3.9261    4.7025   -2.9143 H   0  0  0  0  0  0  0  0  0  0  0  0
    6.2768    4.7563   -3.5168 H   0  0  0  0  0  0  0  0  0  0  0  0
    8.3802    4.7023   -3.8306 H   0  0  0  0  0  0  0  0  0  0  0  0
    9.6779    5.5037   -4.7252 H   0  0  0  0  0  0  0  0  0  0  0  0
    8.3121    4.0566   -6.2568 H   0  0  0  0  0  0  0  0  0  0  0  0
    6.8729    5.0037   -5.8600 H   0  0  0  0  0  0  0  0  0  0  0  0
    8.2189    5.7628   -6.7096 H   0  0  0  0  0  0  0  0  0  0  0  0
    3.7956    8.9830   -2.9850 H   0  0  0  0  0  0  0  0  0  0  0  0
    3.6050    5.1742   -0.5358 H   0  0  0  0  0  0  0  0  0  0  0  0
    2.2018    1.7162    0.2343 H   0  0  0  0  0  0  0  0  0  0  0  0
    0.6016    0.1634    0.5828 H   0  0  0  0  0  0  0  0  0  0  0  0
    0.2812   -1.5525   -1.1286 H   0  0  0  0  0  0  0  0  0  0  0  0
    3.1799   -5.5612   -1.3274 H   0  0  0  0  0  0  0  0  0  0  0  0
    1.8971   -5.7567   -0.1036 H   0  0  0  0  0  0  0  0  0  0  0  0
    1.9352   -7.6650   -1.7453 H   0  0  0  0  0  0  0  0  0  0  0  0
    1.6099   -6.5213   -3.0539 H   0  0  0  0  0  0  0  0  0  0  0  0
    0.4056   -6.7794   -1.7880 H   0  0  0  0  0  0  0  0  0  0  0  0
    3.7722   -2.1849    2.2606 H   0  0  0  0  0  0  0  0  0  0  0  0
    0.6528    4.0108    5.3059 H   0  0  0  0  0  0  0  0  0  0  0  0
    0.6562    5.5699    7.1998 H   0  0  0  0  0  0  0  0  0  0  0  0
    3.7916    7.0265   10.7323 H   0  0  0  0  0  0  0  0  0  0  0  0
    4.4164    5.4141   10.3426 H   0  0  0  0  0  0  0  0  0  0  0  0
    4.1503    7.7452    8.3619 H   0  0  0  0  0  0  0  0  0  0  0  0
    5.6673    7.2076    9.0963 H   0  0  0  0  0  0  0  0  0  0  0  0
    4.8075    6.1530    7.9722 H   0  0  0  0  0  0  0  0  0  0  0  0
    4.1306    2.1038    6.9283 H   0  0  0  0  0  0  0  0  0  0  0  0
    2.3389    0.4120    7.2735 H   0  0  0  0  0  0  0  0  0  0  0  0
    2.2140   -2.1682    6.9488 H   0  0  0  0  0  0  0  0  0  0  0  0
  1  2  2  0  0  0  0
  2  3  1  0  0  0  0
  3  4  2  0  0  0  0
  4  5  1  0  0  0  0
  5  6  2  0  0  0  0
  6  7  1  0  0  0  0
  7  8  2  0  0  0  0
  8  9  1  0  0  0  0
  9 10  1  0  0  0  0
 10 11  1  0  0  0  0
  8 12  1  0  0  0  0
 12 13  1  0  0  0  0
 12 14  2  0  0  0  0
  4 15  1  0  0  0  0
 15 16  2  0  0  0  0
 16 17  1  0  0  0  0
 17 18  1  0  0  0  0
 18 19  2  0  0  0  0
 19 20  1  0  0  0  0
 20 21  2  0  0  0  0
 21 22  1  0  0  0  0
 22 23  1  0  0  0  0
 23 24  1  0  0  0  0
 21 25  1  0  0  0  0
 25 26  2  0  0  0  0
 25 27  1  0  0  0  0
 17 28  2  0  0  0  0
 28 29  1  0  0  0  0
 16 30  1  0  0  0  0
 30 31  2  0  0  0  0
 31 32  1  0  0  0  0
 31 33  1  0  0  0  0
 33 34  2  0  0  0  0
 34 35  1  0  0  0  0
 35 36  2  0  0  0  0
 36 37  1  0  0  0  0
 37 38  2  0  0  0  0
 38 39  1  0  0  0  0
 39 40  2  0  0  0  0
 40 41  1  0  0  0  0
 41 42  1  0  0  0  0
 42 43  1  0  0  0  0
 40 44  1  0  0  0  0
 44 45  1  0  0  0  0
 44 46  2  0  0  0  0
 36 47  1  0  0  0  0
 47 48  2  0  0  0  0
 48 49  1  0  0  0  0
 49 50  1  0  0  0  0
 50 51  2  0  0  0  0
 51 52  1  0  0  0  0
 52 53  2  0  0  0  0
 53 54  1  0  0  0  0
 54 55  1  0  0  0  0
 55 56  1  0  0  0  0
 53 57  1  0  0  0  0
 57 58  2  0  0  0  0
 57 59  1  0  0  0  0
 49 60  2  0  0  0  0
 60 61  1  0  0  0  0
 48 62  1  0  0  0  0
 62 63  2  0  0  0  0
 63 64  1  0  0  0  0
 63 65  1  0  0  0  0
 65 66  1  0  0  0  0
 65 67  2  0  0  0  0
 67 68  1  0  0  0  0
 68 69  1  0  0  0  0
 69 70  1  0  0  0  0
 70 71  1  0  0  0  0
 68 72  1  0  0  0  0
 72 73  1  0  0  0  0
 73 74  1  0  0  0  0
 73 75  1  0  0  0  0
 75 76  2  0  0  0  0
 76 77  1  0  0  0  0
 77 78  2  0  0  0  0
 78 79  1  0  0  0  0
 79 80  1  0  0  0  0
 79 81  2  0  0  0  0
 81 82  1  0  0  0  0
 82 83  1  0  0  0  0
 83 84  1  0  0  0  0
 84 85  1  0  0  0  0
 82 86  1  0  0  0  0
 86 87  1  0  0  0  0
 87 88  1  0  0  0  0
 87 89  1  0  0  0  0
 89 90  2  0  0  0  0
 90 91  1  0  0  0  0
 91 92  2  0  0  0  0
 92 93  1  0  0  0  0
 93 94  2  0  0  0  0
 94 95  1  0  0  0  0
 95 96  2  0  0  0  0
 96 97  1  0  0  0  0
 97 98  2  0  0  0  0
 98 99  1  0  0  0  0
 99100  2  0  0  0  0
100101  1  0  0  0  0
101102  1  0  0  0  0
102103  1  0  0  0  0
100104  1  0  0  0  0
104105  1  0  0  0  0
104106  2  0  0  0  0
 96107  1  0  0  0  0
107108  2  0  0  0  0
108109  1  0  0  0  0
109110  1  0  0  0  0
110111  2  0  0  0  0
111112  1  0  0  0  0
112113  2  0  0  0  0
113114  1  0  0  0  0
114115  1  0  0  0  0
115116  1  0  0  0  0
113117  1  0  0  0  0
117118  2  0  0  0  0
117119  1  0  0  0  0
109120  2  0  0  0  0
120121  1  0  0  0  0
108122  1  0  0  0  0
122123  2  0  0  0  0
123124  1  0  0  0  0
123125  1  0  0  0  0
125126  2  0  0  0  0
126127  1  0  0  0  0
127128  2  0  0  0  0
128129  1  0  0  0  0
129130  2  0  0  0  0
130131  1  0  0  0  0
131132  2  0  0  0  0
132133  1  0  0  0  0
133134  1  0  0  0  0
134135  1  0  0  0  0
132136  1  0  0  0  0
136137  1  0  0  0  0
136138  2  0  0  0  0
128139  1  0  0  0  0
139140  2  0  0  0  0
140141  1  0  0  0  0
141142  1  0  0  0  0
142143  2  0  0  0  0
143144  1  0  0  0  0
144145  2  0  0  0  0
145146  1  0  0  0  0
146147  1  0  0  0  0
147148  1  0  0  0  0
145149  1  0  0  0  0
149150  2  0  0  0  0
149151  1  0  0  0  0
141152  2  0  0  0  0
152153  1  0  0  0  0
140154  1  0  0  0  0
154155  2  0  0  0  0
155156  1  0  0  0  0
 29  1  1  0  0  0  0
 61 33  1  0  0  0  0
 76 66  1  0  0  0  0
 90 80  1  0  0  0  0
121 93  1  0  0  0  0
153125  1  0  0  0  0
 28  3  1  0  0  0  0
 60 35  1  0  0  0  0
 75 67  1  0  0  0  0
 89 81  1  0  0  0  0
120 95  1  0  0  0  0
152127  1  0  0  0  0
 14  5  1  0  0  0  0
 32 15  1  0  0  0  0
 46 37  1  0  0  0  0
 64 47  1  0  0  0  0
106 97  1  0  0  0  0
124107  1  0  0  0  0
138129  1  0  0  0  0
156139  1  0  0  0  0
 26 18  1  0  0  0  0
 58 50  1  0  0  0  0
118110  1  0  0  0  0
150142  1  0  0  0  0
  1157  1  0  0  0  0
  2158  1  0  0  0  0
  6159  1  0  0  0  0
  7160  1  0  0  0  0
 10161  1  0  0  0  0
 10162  1  0  0  0  0
 11163  1  0  0  0  0
 11164  1  0  0  0  0
 11165  1  0  0  0  0
 14166  1  0  0  0  0
 19167  1  0  0  0  0
 20168  1  0  0  0  0
 23169  1  0  0  0  0
 23170  1  0  0  0  0
 24171  1  0  0  0  0
 24172  1  0  0  0  0
 24173  1  0  0  0  0
 26174  1  0  0  0  0
 30175  1  0  0  0  0
 34176  1  0  0  0  0
 38177  1  0  0  0  0
 39178  1  0  0  0  0
 42179  1  0  0  0  0
 42180  1  0  0  0  0
 43181  1  0  0  0  0
 43182  1  0  0  0  0
 43183  1  0  0  0  0
 46184  1  0  0  0  0
 51185  1  0  0  0  0
 52186  1  0  0  0  0
 55187  1  0  0  0  0
 55188  1  0  0  0  0
 56189  1  0  0  0  0
 56190  1  0  0  0  0
 56191  1  0  0  0  0
 58192  1  0  0  0  0
 62193  1  0  0  0  0
 68194  1  0  0  0  0
 69195  1  0  0  0  0
 70196  1  0  0  0  0
 70197  1  0  0  0  0
 71198  1  0  0  0  0
 71199  1  0  0  0  0
 71200  1  0  0  0  0
 73201  1  0  0  0  0
 74202  1  0  0  0  0
 77203  1  0  0  0  0
 78204  1  0  0  0  0
 82205  1  0  0  0  0
 83206  1  0  0  0  0
 84207  1  0  0  0  0
 84208  1  0  0  0  0
 85209  1  0  0  0  0
 85210  1  0  0  0  0
 85211  1  0  0  0  0
 87212  1  0  0  0  0
 88213  1  0  0  0  0
 91214  1  0  0  0  0
 92215  1  0  0  0  0
 94216  1  0  0  0  0
 98217  1  0  0  0  0
 99218  1  0  0  0  0
102219  1  0  0  0  0
102220  1  0  0  0  0
103221  1  0  0  0  0
103222  1  0  0  0  0
103223  1  0  0  0  0
106224  1  0  0  0  0
111225  1  0  0  0  0
112226  1  0  0  0  0
115227  1  0  0  0  0
115228  1  0  0  0  0
116229  1  0  0  0  0
116230  1  0  0  0  0
116231  1  0  0  0  0
118232  1  0  0  0  0
122233  1  0  0  0  0
126234  1  0  0  0  0
130235  1  0  0  0  0
131236  1  0  0  0  0
134237  1  0  0  0  0
134238  1  0  0  0  0
135239  1  0  0  0  0
135240  1  0  0  0  0
135241  1  0  0  0  0
138242  1  0  0  0  0
143243  1  0  0  0  0
144244  1  0  0  0  0
147245  1  0  0  0  0
147246  1  0  0  0  0
148247  1  0  0  0  0
148248  1  0  0  0  0
148249  1  0  0  0  0
150250  1  0  0  0  0
154251  1  0  0  0  0
155252  1  0  0  0  0
M  END
