
  xtb     03012213393D
 energy: -459.499640658886 gnorm: 0.000612516438 xtb: 6.4.1 (unknown)
238265  0     0  0            999 V2000
    4.7401  -10.1355    5.0727 C   0  0  0  0  0  0  0  0  0  0  0  0
    4.3591   -8.8569    5.2688 C   0  0  0  0  0  0  0  0  0  0  0  0
    3.1087   -8.5550    4.6564 C   0  0  0  0  0  0  0  0  0  0  0  0
    2.4234   -7.3338    4.6288 C   0  0  0  0  0  0  0  0  0  0  0  0
    2.9071   -6.1202    5.2724 C   0  0  0  0  0  0  0  0  0  0  0  0
    4.4587   -5.4313    4.9012 S   0  0  0  0  0  0  0  0  0  0  0  0
    4.2009   -4.0727    5.9415 C   0  0  0  0  0  0  0  0  0  0  0  0
    5.2395   -3.0203    6.1330 C   0  0  0  0  0  0  0  0  0  0  0  0
    4.8027   -1.6643    5.5765 C   0  0  0  0  0  0  0  0  0  0  0  0
    2.9747   -4.1597    6.5308 C   0  0  0  0  0  0  0  0  0  0  0  0
    2.3674   -3.0093    7.6508 Cl  0  0  0  0  0  0  0  0  0  0  0  0
    2.2381   -5.3125    6.1510 C   0  0  0  0  0  0  0  0  0  0  0  0
    0.7029   -5.6751    6.8187 Cl  0  0  0  0  0  0  0  0  0  0  0  0
    1.2358   -7.3023    3.9104 C   0  0  0  0  0  0  0  0  0  0  0  0
    0.6862   -8.4185    3.2342 C   0  0  0  0  0  0  0  0  0  0  0  0
    1.3519   -9.6539    3.3042 C   0  0  0  0  0  0  0  0  0  0  0  0
    0.8292  -10.8376    2.6419 C   0  0  0  0  0  0  0  0  0  0  0  0
    0.4403  -10.8307    0.9463 S   0  0  0  0  0  0  0  0  0  0  0  0
   -0.0351  -12.4946    0.9652 C   0  0  0  0  0  0  0  0  0  0  0  0
   -0.5680  -13.1597   -0.2553 C   0  0  0  0  0  0  0  0  0  0  0  0
   -2.0602  -12.8664   -0.4291 C   0  0  0  0  0  0  0  0  0  0  0  0
    0.0934  -13.0072    2.2210 C   0  0  0  0  0  0  0  0  0  0  0  0
    0.5885  -12.0744    3.1722 C   0  0  0  0  0  0  0  0  0  0  0  0
    0.7696  -12.4654    4.8306 Cl  0  0  0  0  0  0  0  0  0  0  0  0
   -0.2934  -14.6259    2.6381 Cl  0  0  0  0  0  0  0  0  0  0  0  0
    2.5537   -9.6856    4.0065 C   0  0  0  0  0  0  0  0  0  0  0  0
    3.6097  -11.0624    4.1498 S   0  0  0  0  0  0  0  0  0  0  0  0
   -0.4946   -8.0706    2.5229 C   0  0  0  0  0  0  0  0  0  0  0  0
   -0.8075   -6.7477    2.6201 C   0  0  0  0  0  0  0  0  0  0  0  0
    0.3035   -5.8711    3.6483 S   0  0  0  0  0  0  0  0  0  0  0  0
   -1.8150   -5.9691    1.9762 C   0  0  0  0  0  0  0  0  0  0  0  0
   -1.9479   -4.6190    2.1076 C   0  0  0  0  0  0  0  0  0  0  0  0
   -2.9503   -4.0671    1.2825 C   0  0  0  0  0  0  0  0  0  0  0  0
   -3.2523   -2.7143    1.1138 C   0  0  0  0  0  0  0  0  0  0  0  0
   -2.4724   -1.6176    1.6924 C   0  0  0  0  0  0  0  0  0  0  0  0
   -1.2927   -0.8310    0.6820 S   0  0  0  0  0  0  0  0  0  0  0  0
   -1.0015    0.4081    1.8507 C   0  0  0  0  0  0  0  0  0  0  0  0
   -0.0793    1.5491    1.5893 C   0  0  0  0  0  0  0  0  0  0  0  0
    0.8433    1.3110    0.4036 C   0  0  0  0  0  0  0  0  0  0  0  0
   -1.7677    0.1980    2.9580 C   0  0  0  0  0  0  0  0  0  0  0  0
   -1.7839    1.2712    4.2941 Cl  0  0  0  0  0  0  0  0  0  0  0  0
   -2.5959   -0.9561    2.8768 C   0  0  0  0  0  0  0  0  0  0  0  0
   -3.6556   -1.4431    4.1324 Cl  0  0  0  0  0  0  0  0  0  0  0  0
   -4.2548   -2.4127    0.2081 C   0  0  0  0  0  0  0  0  0  0  0  0
   -4.9121   -3.3728   -0.5983 C   0  0  0  0  0  0  0  0  0  0  0  0
   -4.5933   -4.7345   -0.4341 C   0  0  0  0  0  0  0  0  0  0  0  0
   -5.2115   -5.7637   -1.2542 C   0  0  0  0  0  0  0  0  0  0  0  0
   -5.2082   -5.6556   -2.9907 S   0  0  0  0  0  0  0  0  0  0  0  0
   -6.0292   -7.1691   -3.1672 C   0  0  0  0  0  0  0  0  0  0  0  0
   -6.4119   -7.6837   -4.5107 C   0  0  0  0  0  0  0  0  0  0  0  0
   -7.6681   -6.9794   -5.0287 C   0  0  0  0  0  0  0  0  0  0  0  0
   -6.2921   -7.7087   -1.9439 C   0  0  0  0  0  0  0  0  0  0  0  0
   -5.8243   -6.9199   -0.8579 C   0  0  0  0  0  0  0  0  0  0  0  0
   -6.0961   -7.3587    0.7762 Cl  0  0  0  0  0  0  0  0  0  0  0  0
   -7.1040   -9.2021   -1.7096 Cl  0  0  0  0  0  0  0  0  0  0  0  0
   -3.6263   -5.0508    0.5166 C   0  0  0  0  0  0  0  0  0  0  0  0
   -2.9630   -6.6353    0.8319 S   0  0  0  0  0  0  0  0  0  0  0  0
   -5.7888   -2.7522   -1.5353 C   0  0  0  0  0  0  0  0  0  0  0  0
   -5.8240   -1.3980   -1.4271 C   0  0  0  0  0  0  0  0  0  0  0  0
   -4.7865   -0.8028   -0.1348 S   0  0  0  0  0  0  0  0  0  0  0  0
   -6.3154   -0.3351   -2.2603 C   0  0  0  0  0  0  0  0  0  0  0  0
   -6.5645    0.9221   -1.8005 C   0  0  0  0  0  0  0  0  0  0  0  0
   -6.3667    1.9313   -2.7721 C   0  0  0  0  0  0  0  0  0  0  0  0
   -6.2095    3.3020   -2.4879 C   0  0  0  0  0  0  0  0  0  0  0  0
   -6.7108    3.8463   -1.2448 C   0  0  0  0  0  0  0  0  0  0  0  0
   -5.7589    4.8499   -0.1909 S   0  0  0  0  0  0  0  0  0  0  0  0
   -7.0387    4.9840    0.9653 C   0  0  0  0  0  0  0  0  0  0  0  0
   -6.8578    5.7226    2.2455 C   0  0  0  0  0  0  0  0  0  0  0  0
   -6.5718    4.7548    3.3965 C   0  0  0  0  0  0  0  0  0  0  0  0
   -8.1350    4.2890    0.5463 C   0  0  0  0  0  0  0  0  0  0  0  0
   -9.6075    4.2086    1.4237 Cl  0  0  0  0  0  0  0  0  0  0  0  0
   -7.9520    3.6387   -0.7007 C   0  0  0  0  0  0  0  0  0  0  0  0
   -9.1971    2.7407   -1.4655 Cl  0  0  0  0  0  0  0  0  0  0  0  0
   -5.4138    4.0062   -3.3796 C   0  0  0  0  0  0  0  0  0  0  0  0
   -4.9864    3.4678   -4.6167 C   0  0  0  0  0  0  0  0  0  0  0  0
   -5.4095    2.1814   -5.0214 C   0  0  0  0  0  0  0  0  0  0  0  0
   -5.1108    1.7014   -6.3500 C   0  0  0  0  0  0  0  0  0  0  0  0
   -4.5912    0.0718   -6.6714 S   0  0  0  0  0  0  0  0  0  0  0  0
   -4.4742    0.3594   -8.3731 C   0  0  0  0  0  0  0  0  0  0  0  0
   -3.9863   -0.6951   -9.3033 C   0  0  0  0  0  0  0  0  0  0  0  0
   -2.4617   -0.6449   -9.4328 C   0  0  0  0  0  0  0  0  0  0  0  0
   -4.8219    1.6457   -8.6634 C   0  0  0  0  0  0  0  0  0  0  0  0
   -5.1875    2.4082   -7.5248 C   0  0  0  0  0  0  0  0  0  0  0  0
   -5.7536    4.0224   -7.6536 Cl  0  0  0  0  0  0  0  0  0  0  0  0
   -4.8349    2.2958  -10.2515 Cl  0  0  0  0  0  0  0  0  0  0  0  0
   -5.9854    1.3969   -4.0237 C   0  0  0  0  0  0  0  0  0  0  0  0
   -6.0554   -0.3514   -4.0008 S   0  0  0  0  0  0  0  0  0  0  0  0
   -3.9103    4.2112   -5.1680 C   0  0  0  0  0  0  0  0  0  0  0  0
   -3.4958    5.2327   -4.3640 C   0  0  0  0  0  0  0  0  0  0  0  0
   -4.5811    5.4889   -3.0081 S   0  0  0  0  0  0  0  0  0  0  0  0
   -2.1764    5.7755   -4.2864 C   0  0  0  0  0  0  0  0  0  0  0  0
   -1.5497    6.0552   -3.1064 C   0  0  0  0  0  0  0  0  0  0  0  0
   -0.1418    6.1007   -3.2128 C   0  0  0  0  0  0  0  0  0  0  0  0
    0.7920    6.1692   -2.1621 C   0  0  0  0  0  0  0  0  0  0  0  0
    0.3781    6.2498   -0.7698 C   0  0  0  0  0  0  0  0  0  0  0  0
   -0.7015    5.0713   -0.0810 S   0  0  0  0  0  0  0  0  0  0  0  0
   -0.6181    5.7936    1.4907 C   0  0  0  0  0  0  0  0  0  0  0  0
   -1.3609    5.2323    2.6531 C   0  0  0  0  0  0  0  0  0  0  0  0
   -2.7286    4.6785    2.2676 C   0  0  0  0  0  0  0  0  0  0  0  0
    0.2087    6.8763    1.4641 C   0  0  0  0  0  0  0  0  0  0  0  0
    0.5368    7.8649    2.8266 Cl  0  0  0  0  0  0  0  0  0  0  0  0
    0.7816    7.1336    0.1894 C   0  0  0  0  0  0  0  0  0  0  0  0
    1.8166    8.4672   -0.1094 Cl  0  0  0  0  0  0  0  0  0  0  0  0
    2.1239    6.0289   -2.5051 C   0  0  0  0  0  0  0  0  0  0  0  0
    2.5773    5.8672   -3.8367 C   0  0  0  0  0  0  0  0  0  0  0  0
    1.6460    5.8840   -4.8928 C   0  0  0  0  0  0  0  0  0  0  0  0
    2.0867    5.8045   -6.2725 C   0  0  0  0  0  0  0  0  0  0  0  0
    1.3780    4.6994   -7.4139 S   0  0  0  0  0  0  0  0  0  0  0  0
    2.3993    5.2470   -8.7005 C   0  0  0  0  0  0  0  0  0  0  0  0
    2.2573    4.7052  -10.0798 C   0  0  0  0  0  0  0  0  0  0  0  0
    1.1091    5.3961  -10.8195 C   0  0  0  0  0  0  0  0  0  0  0  0
    3.2284    6.2338   -8.2588 C   0  0  0  0  0  0  0  0  0  0  0  0
    3.0584    6.5490   -6.8845 C   0  0  0  0  0  0  0  0  0  0  0  0
    3.9390    7.8048   -6.1142 Cl  0  0  0  0  0  0  0  0  0  0  0  0
    4.3783    7.0346   -9.2506 Cl  0  0  0  0  0  0  0  0  0  0  0  0
    0.2993    5.9354   -4.5454 C   0  0  0  0  0  0  0  0  0  0  0  0
   -1.0508    5.7075   -5.6278 S   0  0  0  0  0  0  0  0  0  0  0  0
    3.9549    5.5413   -3.8960 C   0  0  0  0  0  0  0  0  0  0  0  0
    4.5394    5.4327   -2.6655 C   0  0  0  0  0  0  0  0  0  0  0  0
    3.4310    5.8366   -1.3653 S   0  0  0  0  0  0  0  0  0  0  0  0
    5.8082    5.0801   -2.3731 N   0  0  0  0  0  0  0  0  0  0  0  0
    6.7358    4.5683   -3.3912 C   0  0  0  0  0  0  0  0  0  0  0  0
    7.7396    3.8182   -2.6826 N   0  0  0  0  0  0  0  0  0  0  0  0
    7.7586    4.4194   -1.3566 C   0  0  0  0  0  0  0  0  0  0  0  0
    8.4880    3.5746   -0.3252 C   0  0  0  0  0  0  0  0  0  0  0  0
    7.7052    2.3647    0.1660 C   0  0  0  0  0  0  0  0  0  0  0  0
    6.2494    2.6618    0.5355 C   0  0  0  0  0  0  0  0  0  0  0  0
    5.5314    3.4387   -0.5724 C   0  0  0  0  0  0  0  0  0  0  0  0
    6.2703    4.6962   -1.0514 C   0  0  0  0  0  0  0  0  0  0  0  0
    5.7091    1.3210    0.5811 N   0  0  0  0  0  0  0  0  0  0  0  0
    6.4754    0.4501   -0.2856 C   0  0  0  0  0  0  0  0  0  0  0  0
    7.5005    1.3231   -0.8365 N   0  0  0  0  0  0  0  0  0  0  0  0
    4.7317    0.8822    1.4004 C   0  0  0  0  0  0  0  0  0  0  0  0
    4.1452   -0.3485    1.4204 C   0  0  0  0  0  0  0  0  0  0  0  0
    3.1884   -0.4952    2.4588 C   0  0  0  0  0  0  0  0  0  0  0  0
    2.4019   -1.6154    2.7683 C   0  0  0  0  0  0  0  0  0  0  0  0
    2.5172   -2.8559    2.0173 C   0  0  0  0  0  0  0  0  0  0  0  0
    1.1319   -3.5850    1.2616 S   0  0  0  0  0  0  0  0  0  0  0  0
    2.0534   -4.9195    0.6459 C   0  0  0  0  0  0  0  0  0  0  0  0
    1.3580   -5.9463   -0.1866 C   0  0  0  0  0  0  0  0  0  0  0  0
    1.8519   -7.3744    0.0349 C   0  0  0  0  0  0  0  0  0  0  0  0
    3.3594   -4.7897    1.0119 C   0  0  0  0  0  0  0  0  0  0  0  0
    4.6270   -5.8819    0.6269 Cl  0  0  0  0  0  0  0  0  0  0  0  0
    3.6224   -3.6209    1.7792 C   0  0  0  0  0  0  0  0  0  0  0  0
    5.1971   -3.2600    2.3527 Cl  0  0  0  0  0  0  0  0  0  0  0  0
    1.5078   -1.4916    3.8285 C   0  0  0  0  0  0  0  0  0  0  0  0
    1.4017   -0.3271    4.6183 C   0  0  0  0  0  0  0  0  0  0  0  0
    2.1850    0.7957    4.3053 C   0  0  0  0  0  0  0  0  0  0  0  0
    2.0665    2.0224    5.0804 C   0  0  0  0  0  0  0  0  0  0  0  0
    1.5690    3.5146    4.3397 S   0  0  0  0  0  0  0  0  0  0  0  0
    1.6254    4.3713    5.8408 C   0  0  0  0  0  0  0  0  0  0  0  0
    1.2191    5.8002    5.9325 C   0  0  0  0  0  0  0  0  0  0  0  0
   -0.2151    5.9269    6.4525 C   0  0  0  0  0  0  0  0  0  0  0  0
    2.0119    3.5369    6.8462 C   0  0  0  0  0  0  0  0  0  0  0  0
    2.2605    2.2043    6.4191 C   0  0  0  0  0  0  0  0  0  0  0  0
    2.7969    0.9718    7.4857 Cl  0  0  0  0  0  0  0  0  0  0  0  0
    2.1963    4.0327    8.4792 Cl  0  0  0  0  0  0  0  0  0  0  0  0
    3.0428    0.6861    3.2252 C   0  0  0  0  0  0  0  0  0  0  0  0
    4.1041    1.9484    2.6478 S   0  0  0  0  0  0  0  0  0  0  0  0
    0.4387   -0.4757    5.6591 C   0  0  0  0  0  0  0  0  0  0  0  0
   -0.1503   -1.6869    5.6552 C   0  0  0  0  0  0  0  0  0  0  0  0
    0.4214   -2.7238    4.3935 S   0  0  0  0  0  0  0  0  0  0  0  0
    5.6323  -10.6183    5.4205 H   0  0  0  0  0  0  0  0  0  0  0  0
    4.9337   -8.1361    5.8211 H   0  0  0  0  0  0  0  0  0  0  0  0
    6.1610   -3.3391    5.6431 H   0  0  0  0  0  0  0  0  0  0  0  0
    5.4361   -2.9170    7.2041 H   0  0  0  0  0  0  0  0  0  0  0  0
    5.5745   -0.9221    5.7639 H   0  0  0  0  0  0  0  0  0  0  0  0
    3.8837   -1.3334    6.0505 H   0  0  0  0  0  0  0  0  0  0  0  0
    4.6321   -1.7258    4.5059 H   0  0  0  0  0  0  0  0  0  0  0  0
   -0.0231  -12.8034   -1.1312 H   0  0  0  0  0  0  0  0  0  0  0  0
   -0.4152  -14.2362   -0.1607 H   0  0  0  0  0  0  0  0  0  0  0  0
   -2.2261  -11.7962   -0.5271 H   0  0  0  0  0  0  0  0  0  0  0  0
   -2.6174  -13.2275    0.4316 H   0  0  0  0  0  0  0  0  0  0  0  0
   -2.4368  -13.3613   -1.3201 H   0  0  0  0  0  0  0  0  0  0  0  0
   -1.0736   -8.7650    1.9418 H   0  0  0  0  0  0  0  0  0  0  0  0
   -1.3441   -4.0244    2.7683 H   0  0  0  0  0  0  0  0  0  0  0  0
   -0.6780    2.4456    1.4004 H   0  0  0  0  0  0  0  0  0  0  0  0
    0.5080    1.7387    2.4911 H   0  0  0  0  0  0  0  0  0  0  0  0
    1.5089    2.1611    0.2788 H   0  0  0  0  0  0  0  0  0  0  0  0
    1.4417    0.4165    0.5572 H   0  0  0  0  0  0  0  0  0  0  0  0
    0.2636    1.1870   -0.5080 H   0  0  0  0  0  0  0  0  0  0  0  0
   -6.5969   -8.7563   -4.4333 H   0  0  0  0  0  0  0  0  0  0  0  0
   -5.5906   -7.5188   -5.2107 H   0  0  0  0  0  0  0  0  0  0  0  0
   -8.4994   -7.1421   -4.3474 H   0  0  0  0  0  0  0  0  0  0  0  0
   -7.9383   -7.3689   -6.0064 H   0  0  0  0  0  0  0  0  0  0  0  0
   -7.4920   -5.9098   -5.1149 H   0  0  0  0  0  0  0  0  0  0  0  0
   -6.3591   -3.2920   -2.2689 H   0  0  0  0  0  0  0  0  0  0  0  0
   -6.7460    1.1348   -0.7620 H   0  0  0  0  0  0  0  0  0  0  0  0
   -7.7690    6.2835    2.4641 H   0  0  0  0  0  0  0  0  0  0  0  0
   -6.0311    6.4262    2.1403 H   0  0  0  0  0  0  0  0  0  0  0  0
   -6.4090    5.3081    4.3173 H   0  0  0  0  0  0  0  0  0  0  0  0
   -7.4127    4.0815    3.5390 H   0  0  0  0  0  0  0  0  0  0  0  0
   -5.6865    4.1625    3.1803 H   0  0  0  0  0  0  0  0  0  0  0  0
   -4.2880   -1.6744   -8.9287 H   0  0  0  0  0  0  0  0  0  0  0  0
   -4.4404   -0.5375  -10.2834 H   0  0  0  0  0  0  0  0  0  0  0  0
   -1.9960   -0.8032   -8.4632 H   0  0  0  0  0  0  0  0  0  0  0  0
   -2.1484    0.3230   -9.8155 H   0  0  0  0  0  0  0  0  0  0  0  0
   -2.1198   -1.4175  -10.1161 H   0  0  0  0  0  0  0  0  0  0  0  0
   -3.3596    3.9036   -6.0387 H   0  0  0  0  0  0  0  0  0  0  0  0
   -2.0809    6.1368   -2.1759 H   0  0  0  0  0  0  0  0  0  0  0  0
   -1.4722    6.0248    3.3961 H   0  0  0  0  0  0  0  0  0  0  0  0
   -0.7621    4.4344    3.1049 H   0  0  0  0  0  0  0  0  0  0  0  0
   -2.6309    3.8906    1.5241 H   0  0  0  0  0  0  0  0  0  0  0  0
   -3.3581    5.4605    1.8502 H   0  0  0  0  0  0  0  0  0  0  0  0
   -3.2157    4.2637    3.1457 H   0  0  0  0  0  0  0  0  0  0  0  0
    3.1923    4.8687  -10.6186 H   0  0  0  0  0  0  0  0  0  0  0  0
    2.0630    3.6323  -10.0306 H   0  0  0  0  0  0  0  0  0  0  0  0
    1.2958    6.4647  -10.8906 H   0  0  0  0  0  0  0  0  0  0  0  0
    1.0139    4.9916  -11.8236 H   0  0  0  0  0  0  0  0  0  0  0  0
    0.1727    5.2417  -10.2888 H   0  0  0  0  0  0  0  0  0  0  0  0
    4.4725    5.3430   -4.8146 H   0  0  0  0  0  0  0  0  0  0  0  0
    7.2068    5.4242   -3.8959 H   0  0  0  0  0  0  0  0  0  0  0  0
    6.2199    3.9585   -4.1384 H   0  0  0  0  0  0  0  0  0  0  0  0
    7.4781    2.8396   -2.5843 H   0  0  0  0  0  0  0  0  0  0  0  0
    8.2746    5.3837   -1.4544 H   0  0  0  0  0  0  0  0  0  0  0  0
    8.7101    4.1992    0.5416 H   0  0  0  0  0  0  0  0  0  0  0  0
    9.4336    3.2463   -0.7591 H   0  0  0  0  0  0  0  0  0  0  0  0
    8.2179    1.9653    1.0609 H   0  0  0  0  0  0  0  0  0  0  0  0
    6.1505    3.1610    1.5021 H   0  0  0  0  0  0  0  0  0  0  0  0
    4.5323    3.7036   -0.2254 H   0  0  0  0  0  0  0  0  0  0  0  0
    5.4220    2.7643   -1.4245 H   0  0  0  0  0  0  0  0  0  0  0  0
    6.1338    5.5193   -0.3442 H   0  0  0  0  0  0  0  0  0  0  0  0
    6.8752   -0.3957    0.3032 H   0  0  0  0  0  0  0  0  0  0  0  0
    5.8581    0.0424   -1.0989 H   0  0  0  0  0  0  0  0  0  0  0  0
    8.3518    0.8194   -1.0567 H   0  0  0  0  0  0  0  0  0  0  0  0
    4.3724   -1.1218    0.7124 H   0  0  0  0  0  0  0  0  0  0  0  0
    1.4761   -5.6846   -1.2433 H   0  0  0  0  0  0  0  0  0  0  0  0
    0.2916   -5.8877    0.0419 H   0  0  0  0  0  0  0  0  0  0  0  0
    1.9506   -7.5877    1.0953 H   0  0  0  0  0  0  0  0  0  0  0  0
    2.8155   -7.5337   -0.4380 H   0  0  0  0  0  0  0  0  0  0  0  0
    1.1407   -8.0780   -0.3901 H   0  0  0  0  0  0  0  0  0  0  0  0
    1.2933    6.2587    4.9461 H   0  0  0  0  0  0  0  0  0  0  0  0
    1.8965    6.3202    6.6135 H   0  0  0  0  0  0  0  0  0  0  0  0
   -0.9003    5.3777    5.8114 H   0  0  0  0  0  0  0  0  0  0  0  0
   -0.5121    6.9719    6.4702 H   0  0  0  0  0  0  0  0  0  0  0  0
   -0.2881    5.5264    7.4602 H   0  0  0  0  0  0  0  0  0  0  0  0
    0.2064    0.2975    6.3676 H   0  0  0  0  0  0  0  0  0  0  0  0
   -0.9034   -2.0619    6.3197 H   0  0  0  0  0  0  0  0  0  0  0  0
  1  2  2  0  0  0  0
  2  3  1  0  0  0  0
  3  4  2  0  0  0  0
  4  5  1  0  0  0  0
  5  6  1  0  0  0  0
  6  7  1  0  0  0  0
  7  8  1  0  0  0  0
  8  9  1  0  0  0  0
  7 10  2  0  0  0  0
 10 11  1  0  0  0  0
 10 12  1  0  0  0  0
 12 13  1  0  0  0  0
  4 14  1  0  0  0  0
 14 15  2  0  0  0  0
 15 16  1  0  0  0  0
 16 17  1  0  0  0  0
 17 18  1  0  0  0  0
 18 19  1  0  0  0  0
 19 20  1  0  0  0  0
 20 21  1  0  0  0  0
 19 22  2  0  0  0  0
 22 23  1  0  0  0  0
 23 24  1  0  0  0  0
 22 25  1  0  0  0  0
 16 26  2  0  0  0  0
 26 27  1  0  0  0  0
 15 28  1  0  0  0  0
 28 29  2  0  0  0  0
 29 30  1  0  0  0  0
 29 31  1  0  0  0  0
 31 32  2  0  0  0  0
 32 33  1  0  0  0  0
 33 34  2  0  0  0  0
 34 35  1  0  0  0  0
 35 36  1  0  0  0  0
 36 37  1  0  0  0  0
 37 38  1  0  0  0  0
 38 39  1  0  0  0  0
 37 40  2  0  0  0  0
 40 41  1  0  0  0  0
 40 42  1  0  0  0  0
 42 43  1  0  0  0  0
 34 44  1  0  0  0  0
 44 45  2  0  0  0  0
 45 46  1  0  0  0  0
 46 47  1  0  0  0  0
 47 48  1  0  0  0  0
 48 49  1  0  0  0  0
 49 50  1  0  0  0  0
 50 51  1  0  0  0  0
 49 52  2  0  0  0  0
 52 53  1  0  0  0  0
 53 54  1  0  0  0  0
 52 55  1  0  0  0  0
 46 56  2  0  0  0  0
 56 57  1  0  0  0  0
 45 58  1  0  0  0  0
 58 59  2  0  0  0  0
 59 60  1  0  0  0  0
 59 61  1  0  0  0  0
 61 62  2  0  0  0  0
 62 63  1  0  0  0  0
 63 64  2  0  0  0  0
 64 65  1  0  0  0  0
 65 66  1  0  0  0  0
 66 67  1  0  0  0  0
 67 68  1  0  0  0  0
 68 69  1  0  0  0  0
 67 70  2  0  0  0  0
 70 71  1  0  0  0  0
 70 72  1  0  0  0  0
 72 73  1  0  0  0  0
 64 74  1  0  0  0  0
 74 75  2  0  0  0  0
 75 76  1  0  0  0  0
 76 77  1  0  0  0  0
 77 78  1  0  0  0  0
 78 79  1  0  0  0  0
 79 80  1  0  0  0  0
 80 81  1  0  0  0  0
 79 82  2  0  0  0  0
 82 83  1  0  0  0  0
 83 84  1  0  0  0  0
 82 85  1  0  0  0  0
 76 86  2  0  0  0  0
 86 87  1  0  0  0  0
 75 88  1  0  0  0  0
 88 89  2  0  0  0  0
 89 90  1  0  0  0  0
 89 91  1  0  0  0  0
 91 92  2  0  0  0  0
 92 93  1  0  0  0  0
 93 94  2  0  0  0  0
 94 95  1  0  0  0  0
 95 96  1  0  0  0  0
 96 97  1  0  0  0  0
 97 98  1  0  0  0  0
 98 99  1  0  0  0  0
 97100  2  0  0  0  0
100101  1  0  0  0  0
100102  1  0  0  0  0
102103  1  0  0  0  0
 94104  1  0  0  0  0
104105  2  0  0  0  0
105106  1  0  0  0  0
106107  1  0  0  0  0
107108  1  0  0  0  0
108109  1  0  0  0  0
109110  1  0  0  0  0
110111  1  0  0  0  0
109112  2  0  0  0  0
112113  1  0  0  0  0
113114  1  0  0  0  0
112115  1  0  0  0  0
106116  2  0  0  0  0
116117  1  0  0  0  0
105118  1  0  0  0  0
118119  2  0  0  0  0
119120  1  0  0  0  0
119121  1  0  0  0  0
121122  1  0  0  0  0
122123  1  0  0  0  0
123124  1  0  0  0  0
124125  1  0  0  0  0
125126  1  0  0  0  0
126127  1  0  0  0  0
127128  1  0  0  0  0
128129  1  0  0  0  0
127130  1  0  0  0  0
130131  1  0  0  0  0
131132  1  0  0  0  0
130133  1  0  0  0  0
133134  2  0  0  0  0
134135  1  0  0  0  0
135136  2  0  0  0  0
136137  1  0  0  0  0
137138  1  0  0  0  0
138139  1  0  0  0  0
139140  1  0  0  0  0
140141  1  0  0  0  0
139142  2  0  0  0  0
142143  1  0  0  0  0
142144  1  0  0  0  0
144145  1  0  0  0  0
136146  1  0  0  0  0
146147  2  0  0  0  0
147148  1  0  0  0  0
148149  1  0  0  0  0
149150  1  0  0  0  0
150151  1  0  0  0  0
151152  1  0  0  0  0
152153  1  0  0  0  0
151154  2  0  0  0  0
154155  1  0  0  0  0
155156  1  0  0  0  0
154157  1  0  0  0  0
148158  2  0  0  0  0
158159  1  0  0  0  0
147160  1  0  0  0  0
160161  2  0  0  0  0
161162  1  0  0  0  0
 27  1  1  0  0  0  0
 57 31  1  0  0  0  0
 87 61  1  0  0  0  0
117 91  1  0  0  0  0
129121  1  0  0  0  0
159133  1  0  0  0  0
 26  3  1  0  0  0  0
 56 33  1  0  0  0  0
 86 63  1  0  0  0  0
116 93  1  0  0  0  0
129124  1  0  0  0  0
158135  1  0  0  0  0
 12  5  2  0  0  0  0
 30 14  1  0  0  0  0
 42 35  2  0  0  0  0
 60 44  1  0  0  0  0
 72 65  2  0  0  0  0
 90 74  1  0  0  0  0
102 95  2  0  0  0  0
120104  1  0  0  0  0
132126  1  0  0  0  0
144137  2  0  0  0  0
162146  1  0  0  0  0
 23 17  2  0  0  0  0
 53 47  2  0  0  0  0
 83 77  2  0  0  0  0
113107  2  0  0  0  0
155149  2  0  0  0  0
  1163  1  0  0  0  0
  2164  1  0  0  0  0
  8165  1  0  0  0  0
  8166  1  0  0  0  0
  9167  1  0  0  0  0
  9168  1  0  0  0  0
  9169  1  0  0  0  0
 20170  1  0  0  0  0
 20171  1  0  0  0  0
 21172  1  0  0  0  0
 21173  1  0  0  0  0
 21174  1  0  0  0  0
 28175  1  0  0  0  0
 32176  1  0  0  0  0
 38177  1  0  0  0  0
 38178  1  0  0  0  0
 39179  1  0  0  0  0
 39180  1  0  0  0  0
 39181  1  0  0  0  0
 50182  1  0  0  0  0
 50183  1  0  0  0  0
 51184  1  0  0  0  0
 51185  1  0  0  0  0
 51186  1  0  0  0  0
 58187  1  0  0  0  0
 62188  1  0  0  0  0
 68189  1  0  0  0  0
 68190  1  0  0  0  0
 69191  1  0  0  0  0
 69192  1  0  0  0  0
 69193  1  0  0  0  0
 80194  1  0  0  0  0
 80195  1  0  0  0  0
 81196  1  0  0  0  0
 81197  1  0  0  0  0
 81198  1  0  0  0  0
 88199  1  0  0  0  0
 92200  1  0  0  0  0
 98201  1  0  0  0  0
 98202  1  0  0  0  0
 99203  1  0  0  0  0
 99204  1  0  0  0  0
 99205  1  0  0  0  0
110206  1  0  0  0  0
110207  1  0  0  0  0
111208  1  0  0  0  0
111209  1  0  0  0  0
111210  1  0  0  0  0
118211  1  0  0  0  0
122212  1  0  0  0  0
122213  1  0  0  0  0
123214  1  0  0  0  0
124215  1  0  0  0  0
125216  1  0  0  0  0
125217  1  0  0  0  0
126218  1  0  0  0  0
127219  1  0  0  0  0
128220  1  0  0  0  0
128221  1  0  0  0  0
129222  1  0  0  0  0
131223  1  0  0  0  0
131224  1  0  0  0  0
132225  1  0  0  0  0
134226  1  0  0  0  0
140227  1  0  0  0  0
140228  1  0  0  0  0
141229  1  0  0  0  0
141230  1  0  0  0  0
141231  1  0  0  0  0
152232  1  0  0  0  0
152233  1  0  0  0  0
153234  1  0  0  0  0
153235  1  0  0  0  0
153236  1  0  0  0  0
160237  1  0  0  0  0
161238  1  0  0  0  0
M  END
