
  xtb     03012213103D
 energy: -459.583566624132 gnorm: 0.000741391306 xtb: 6.4.1 (unknown)
238265  0     0  0            999 V2000
    6.0942   -8.1897    8.5606 C   0  0  0  0  0  0  0  0  0  0  0  0
    5.8345   -8.4852    7.2704 C   0  0  0  0  0  0  0  0  0  0  0  0
    4.8094   -7.6665    6.7141 C   0  0  0  0  0  0  0  0  0  0  0  0
    4.2860   -7.6762    5.4153 C   0  0  0  0  0  0  0  0  0  0  0  0
    4.8215   -8.5199    4.3590 C   0  0  0  0  0  0  0  0  0  0  0  0
    6.5032   -8.4284    3.9247 S   0  0  0  0  0  0  0  0  0  0  0  0
    6.2962   -9.4963    2.5818 C   0  0  0  0  0  0  0  0  0  0  0  0
    7.4149   -9.7913    1.6456 C   0  0  0  0  0  0  0  0  0  0  0  0
    7.3562   -8.8443    0.4440 C   0  0  0  0  0  0  0  0  0  0  0  0
    4.9973   -9.8978    2.4931 C   0  0  0  0  0  0  0  0  0  0  0  0
    4.4107  -10.9608    1.2828 Cl  0  0  0  0  0  0  0  0  0  0  0  0
    4.1579   -9.3485    3.4988 C   0  0  0  0  0  0  0  0  0  0  0  0
    2.4997   -9.7550    3.6392 Cl  0  0  0  0  0  0  0  0  0  0  0  0
    3.2795   -6.7622    5.1321 C   0  0  0  0  0  0  0  0  0  0  0  0
    2.7985   -5.8089    6.0645 C   0  0  0  0  0  0  0  0  0  0  0  0
    3.3221   -5.8071    7.3644 C   0  0  0  0  0  0  0  0  0  0  0  0
    2.9211   -4.8541    8.3926 C   0  0  0  0  0  0  0  0  0  0  0  0
    3.3434   -3.1711    8.2962 S   0  0  0  0  0  0  0  0  0  0  0  0
    2.7348   -2.8511    9.8859 C   0  0  0  0  0  0  0  0  0  0  0  0
    2.8977   -1.5196   10.5298 C   0  0  0  0  0  0  0  0  0  0  0  0
    4.2255   -1.4501   11.2887 C   0  0  0  0  0  0  0  0  0  0  0  0
    2.2250   -3.9886   10.4362 C   0  0  0  0  0  0  0  0  0  0  0  0
    2.3346   -5.1275    9.5941 C   0  0  0  0  0  0  0  0  0  0  0  0
    1.7608   -6.6796   10.0414 Cl  0  0  0  0  0  0  0  0  0  0  0  0
    1.5250   -4.0621   12.0009 Cl  0  0  0  0  0  0  0  0  0  0  0  0
    4.3032   -6.7459    7.6606 C   0  0  0  0  0  0  0  0  0  0  0  0
    5.1199   -6.9065    9.1900 S   0  0  0  0  0  0  0  0  0  0  0  0
    1.8361   -4.9391    5.4859 C   0  0  0  0  0  0  0  0  0  0  0  0
    1.6031   -5.2032    4.1676 C   0  0  0  0  0  0  0  0  0  0  0  0
    2.5331   -6.5631    3.5829 S   0  0  0  0  0  0  0  0  0  0  0  0
    0.7780   -4.5403    3.2083 C   0  0  0  0  0  0  0  0  0  0  0  0
   -0.0903   -3.4978    3.3427 C   0  0  0  0  0  0  0  0  0  0  0  0
   -0.6657   -3.0918    2.1118 C   0  0  0  0  0  0  0  0  0  0  0  0
   -1.5923   -2.0677    1.8689 C   0  0  0  0  0  0  0  0  0  0  0  0
   -2.2068   -1.2358    2.8939 C   0  0  0  0  0  0  0  0  0  0  0  0
   -1.2699   -0.2677    3.9860 S   0  0  0  0  0  0  0  0  0  0  0  0
   -2.6703    0.5175    4.6291 C   0  0  0  0  0  0  0  0  0  0  0  0
   -2.5374    1.5806    5.6634 C   0  0  0  0  0  0  0  0  0  0  0  0
   -1.4562    2.5920    5.2869 C   0  0  0  0  0  0  0  0  0  0  0  0
   -3.7972    0.0313    4.0374 C   0  0  0  0  0  0  0  0  0  0  0  0
   -5.3852    0.5715    4.3979 Cl  0  0  0  0  0  0  0  0  0  0  0  0
   -3.5396   -0.9656    3.0586 C   0  0  0  0  0  0  0  0  0  0  0  0
   -4.8036   -1.7871    2.2427 Cl  0  0  0  0  0  0  0  0  0  0  0  0
   -1.9134   -1.8281    0.5397 C   0  0  0  0  0  0  0  0  0  0  0  0
   -1.4106   -2.5583   -0.5670 C   0  0  0  0  0  0  0  0  0  0  0  0
   -0.5370   -3.6312   -0.3150 C   0  0  0  0  0  0  0  0  0  0  0  0
   -0.0212   -4.4966   -1.3657 C   0  0  0  0  0  0  0  0  0  0  0  0
   -0.1760   -6.2238   -1.1913 S   0  0  0  0  0  0  0  0  0  0  0  0
    0.5632   -6.5341   -2.7229 C   0  0  0  0  0  0  0  0  0  0  0  0
    0.6952   -7.9217   -3.2452 C   0  0  0  0  0  0  0  0  0  0  0  0
   -0.6402   -8.4323   -3.7913 C   0  0  0  0  0  0  0  0  0  0  0  0
    0.9046   -5.3611   -3.3243 C   0  0  0  0  0  0  0  0  0  0  0  0
    0.5861   -4.2080   -2.5568 C   0  0  0  0  0  0  0  0  0  0  0  0
    1.0357   -2.6442   -3.1053 Cl  0  0  0  0  0  0  0  0  0  0  0  0
    1.6463   -5.2517   -4.8684 Cl  0  0  0  0  0  0  0  0  0  0  0  0
   -0.2013   -3.8642    1.0166 C   0  0  0  0  0  0  0  0  0  0  0  0
    0.8957   -5.0957    1.5521 S   0  0  0  0  0  0  0  0  0  0  0  0
   -1.8973   -2.0437   -1.7987 C   0  0  0  0  0  0  0  0  0  0  0  0
   -2.6863   -0.9419   -1.6452 C   0  0  0  0  0  0  0  0  0  0  0  0
   -2.9308   -0.5305    0.0352 S   0  0  0  0  0  0  0  0  0  0  0  0
   -3.2951   -0.0412   -2.5665 C   0  0  0  0  0  0  0  0  0  0  0  0
   -3.8620    1.1338   -2.1721 C   0  0  0  0  0  0  0  0  0  0  0  0
   -4.3394    1.9244   -3.2320 C   0  0  0  0  0  0  0  0  0  0  0  0
   -4.9315    3.1957   -3.1212 C   0  0  0  0  0  0  0  0  0  0  0  0
   -5.3410    3.7307   -1.8393 C   0  0  0  0  0  0  0  0  0  0  0  0
   -5.0548    5.3940   -1.4075 S   0  0  0  0  0  0  0  0  0  0  0  0
   -5.8241    5.2207    0.1315 C   0  0  0  0  0  0  0  0  0  0  0  0
   -6.0274    6.3925    1.0256 C   0  0  0  0  0  0  0  0  0  0  0  0
   -7.3348    7.1093    0.6795 C   0  0  0  0  0  0  0  0  0  0  0  0
   -6.2736    3.9448    0.2909 C   0  0  0  0  0  0  0  0  0  0  0  0
   -7.0847    3.3877    1.6945 Cl  0  0  0  0  0  0  0  0  0  0  0  0
   -6.0054    3.0996   -0.8198 C   0  0  0  0  0  0  0  0  0  0  0  0
   -6.5864    1.4863   -0.8775 Cl  0  0  0  0  0  0  0  0  0  0  0  0
   -5.0352    3.9039   -4.3041 C   0  0  0  0  0  0  0  0  0  0  0  0
   -4.6836    3.3739   -5.5677 C   0  0  0  0  0  0  0  0  0  0  0  0
   -4.3283    2.0137   -5.6872 C   0  0  0  0  0  0  0  0  0  0  0  0
   -4.2169    1.3996   -6.9915 C   0  0  0  0  0  0  0  0  0  0  0  0
   -2.9748    0.2489   -7.3793 S   0  0  0  0  0  0  0  0  0  0  0  0
   -3.5591    0.0326   -8.9950 C   0  0  0  0  0  0  0  0  0  0  0  0
   -2.8521   -0.8723   -9.9426 C   0  0  0  0  0  0  0  0  0  0  0  0
   -1.4824   -0.3091  -10.3253 C   0  0  0  0  0  0  0  0  0  0  0  0
   -4.6572    0.8111   -9.2075 C   0  0  0  0  0  0  0  0  0  0  0  0
   -5.0384    1.5789   -8.0761 C   0  0  0  0  0  0  0  0  0  0  0  0
   -6.4597    2.5416   -8.0784 Cl  0  0  0  0  0  0  0  0  0  0  0  0
   -5.5260    0.8660  -10.6878 Cl  0  0  0  0  0  0  0  0  0  0  0  0
   -4.0837    1.3379   -4.4926 C   0  0  0  0  0  0  0  0  0  0  0  0
   -3.3641   -0.2430   -4.3043 S   0  0  0  0  0  0  0  0  0  0  0  0
   -4.5805    4.3874   -6.5549 C   0  0  0  0  0  0  0  0  0  0  0  0
   -4.8320    5.6354   -6.0695 C   0  0  0  0  0  0  0  0  0  0  0  0
   -5.4593    5.5825   -4.4237 S   0  0  0  0  0  0  0  0  0  0  0  0
   -4.5975    6.8352   -6.6500 N   0  0  0  0  0  0  0  0  0  0  0  0
   -4.9165    7.1784   -8.0085 C   0  0  0  0  0  0  0  0  0  0  0  0
   -3.9988    8.2673   -8.2675 N   0  0  0  0  0  0  0  0  0  0  0  0
   -3.7917    8.9986   -7.0137 C   0  0  0  0  0  0  0  0  0  0  0  0
   -2.2985    9.3115   -6.8258 C   0  0  0  0  0  0  0  0  0  0  0  0
   -1.4712    8.0894   -6.4364 C   0  0  0  0  0  0  0  0  0  0  0  0
   -1.9894    7.3875   -5.1458 C   0  0  0  0  0  0  0  0  0  0  0  0
   -3.3698    7.9110   -4.7457 C   0  0  0  0  0  0  0  0  0  0  0  0
   -4.3452    8.0594   -5.9136 C   0  0  0  0  0  0  0  0  0  0  0  0
   -1.9669    5.9726   -5.4950 N   0  0  0  0  0  0  0  0  0  0  0  0
   -1.3587    5.8228   -6.8246 C   0  0  0  0  0  0  0  0  0  0  0  0
   -1.4853    7.0824   -7.4846 N   0  0  0  0  0  0  0  0  0  0  0  0
   -1.7444    4.9889   -4.5830 C   0  0  0  0  0  0  0  0  0  0  0  0
   -1.9656    4.9540   -3.2340 C   0  0  0  0  0  0  0  0  0  0  0  0
   -1.5054    3.7622   -2.6076 C   0  0  0  0  0  0  0  0  0  0  0  0
   -1.4567    3.4346   -1.2335 C   0  0  0  0  0  0  0  0  0  0  0  0
   -1.9703    4.3154   -0.1998 C   0  0  0  0  0  0  0  0  0  0  0  0
   -1.5964    6.0178   -0.1999 S   0  0  0  0  0  0  0  0  0  0  0  0
   -2.3794    6.2844    1.3204 C   0  0  0  0  0  0  0  0  0  0  0  0
   -2.3736    7.6225    1.9733 C   0  0  0  0  0  0  0  0  0  0  0  0
   -1.0718    7.8467    2.7464 C   0  0  0  0  0  0  0  0  0  0  0  0
   -2.8948    5.1150    1.7886 C   0  0  0  0  0  0  0  0  0  0  0  0
   -3.7373    4.9636    3.2751 Cl  0  0  0  0  0  0  0  0  0  0  0  0
   -2.6766    4.0029    0.9320 C   0  0  0  0  0  0  0  0  0  0  0  0
   -3.3528    2.4684    1.3057 Cl  0  0  0  0  0  0  0  0  0  0  0  0
   -0.7920    2.2578   -0.8777 C   0  0  0  0  0  0  0  0  0  0  0  0
   -0.2235    1.3909   -1.8362 C   0  0  0  0  0  0  0  0  0  0  0  0
   -0.2872    1.6988   -3.2042 C   0  0  0  0  0  0  0  0  0  0  0  0
    0.4519    0.8756   -4.1520 C   0  0  0  0  0  0  0  0  0  0  0  0
   -0.3056    0.0694   -5.4832 S   0  0  0  0  0  0  0  0  0  0  0  0
    1.1758   -0.6744   -5.9816 C   0  0  0  0  0  0  0  0  0  0  0  0
    1.2222   -1.5893   -7.1568 C   0  0  0  0  0  0  0  0  0  0  0  0
    0.0023   -2.5039   -7.2158 C   0  0  0  0  0  0  0  0  0  0  0  0
    2.1956   -0.2934   -5.1612 C   0  0  0  0  0  0  0  0  0  0  0  0
    1.7886    0.5851   -4.1220 C   0  0  0  0  0  0  0  0  0  0  0  0
    2.8948    1.2460   -2.9866 Cl  0  0  0  0  0  0  0  0  0  0  0  0
    3.8187   -0.8186   -5.3360 Cl  0  0  0  0  0  0  0  0  0  0  0  0
   -0.9472    2.8610   -3.5509 C   0  0  0  0  0  0  0  0  0  0  0  0
   -1.0369    3.4906   -5.1720 S   0  0  0  0  0  0  0  0  0  0  0  0
    0.4686    0.3092   -1.2532 C   0  0  0  0  0  0  0  0  0  0  0  0
    0.5184    0.3530    0.1072 C   0  0  0  0  0  0  0  0  0  0  0  0
   -0.3782    1.7235    0.7347 S   0  0  0  0  0  0  0  0  0  0  0  0
    1.2812   -0.5438    0.9158 C   0  0  0  0  0  0  0  0  0  0  0  0
    1.9442   -1.6521    0.4706 C   0  0  0  0  0  0  0  0  0  0  0  0
    2.7563   -2.2677    1.4529 C   0  0  0  0  0  0  0  0  0  0  0  0
    3.6381   -3.3546    1.3076 C   0  0  0  0  0  0  0  0  0  0  0  0
    3.8495   -3.9847    0.0158 C   0  0  0  0  0  0  0  0  0  0  0  0
    3.7981   -5.7155   -0.1619 S   0  0  0  0  0  0  0  0  0  0  0  0
    4.1210   -5.6305   -1.8585 C   0  0  0  0  0  0  0  0  0  0  0  0
    4.2860   -6.8608   -2.6809 C   0  0  0  0  0  0  0  0  0  0  0  0
    5.7684   -7.1820   -2.8864 C   0  0  0  0  0  0  0  0  0  0  0  0
    4.2696   -4.3331   -2.2493 C   0  0  0  0  0  0  0  0  0  0  0  0
    4.6160   -3.8522   -3.8574 Cl  0  0  0  0  0  0  0  0  0  0  0  0
    4.1150   -3.3969   -1.1926 C   0  0  0  0  0  0  0  0  0  0  0  0
    4.3572   -1.7140   -1.4371 Cl  0  0  0  0  0  0  0  0  0  0  0  0
    4.3098   -3.7729    2.4524 C   0  0  0  0  0  0  0  0  0  0  0  0
    4.1388   -3.1626    3.7184 C   0  0  0  0  0  0  0  0  0  0  0  0
    3.2772   -2.0660    3.8539 C   0  0  0  0  0  0  0  0  0  0  0  0
    3.0649   -1.3668    5.1120 C   0  0  0  0  0  0  0  0  0  0  0  0
    1.4555   -1.1742    5.7330 S   0  0  0  0  0  0  0  0  0  0  0  0
    1.9853   -0.1521    7.0236 C   0  0  0  0  0  0  0  0  0  0  0  0
    0.9985    0.4657    7.9540 C   0  0  0  0  0  0  0  0  0  0  0  0
   -0.0790   -0.5251    8.3867 C   0  0  0  0  0  0  0  0  0  0  0  0
    3.3395   -0.0053    6.9783 C   0  0  0  0  0  0  0  0  0  0  0  0
    3.9557   -0.6975    5.8992 C   0  0  0  0  0  0  0  0  0  0  0  0
    5.6413   -0.6321    5.5949 Cl  0  0  0  0  0  0  0  0  0  0  0  0
    4.2442    0.9474    8.0837 Cl  0  0  0  0  0  0  0  0  0  0  0  0
    2.6188   -1.6352    2.7104 C   0  0  0  0  0  0  0  0  0  0  0  0
    1.5846   -0.2394    2.6094 S   0  0  0  0  0  0  0  0  0  0  0  0
    4.9353   -3.7885    4.7217 C   0  0  0  0  0  0  0  0  0  0  0  0
    5.6918   -4.7927    4.2356 C   0  0  0  0  0  0  0  0  0  0  0  0
    5.4804   -5.0610    2.5387 S   0  0  0  0  0  0  0  0  0  0  0  0
    6.8101   -8.6530    9.2109 H   0  0  0  0  0  0  0  0  0  0  0  0
    6.3384   -9.2571    6.7182 H   0  0  0  0  0  0  0  0  0  0  0  0
    8.3665   -9.6715    2.1649 H   0  0  0  0  0  0  0  0  0  0  0  0
    7.3296  -10.8237    1.3001 H   0  0  0  0  0  0  0  0  0  0  0  0
    7.4226   -7.8104    0.7752 H   0  0  0  0  0  0  0  0  0  0  0  0
    8.1777   -9.0507   -0.2370 H   0  0  0  0  0  0  0  0  0  0  0  0
    6.4169   -8.9786   -0.0862 H   0  0  0  0  0  0  0  0  0  0  0  0
    2.8840   -0.7415    9.7687 H   0  0  0  0  0  0  0  0  0  0  0  0
    2.0707   -1.3574   11.2240 H   0  0  0  0  0  0  0  0  0  0  0  0
    4.2652   -2.2176   12.0574 H   0  0  0  0  0  0  0  0  0  0  0  0
    4.3330   -0.4766   11.7595 H   0  0  0  0  0  0  0  0  0  0  0  0
    5.0567   -1.5988   10.6037 H   0  0  0  0  0  0  0  0  0  0  0  0
    1.3594   -4.1411    6.0254 H   0  0  0  0  0  0  0  0  0  0  0  0
   -0.3039   -3.0170    4.2798 H   0  0  0  0  0  0  0  0  0  0  0  0
   -3.5018    2.0811    5.7677 H   0  0  0  0  0  0  0  0  0  0  0  0
   -2.2885    1.1227    6.6255 H   0  0  0  0  0  0  0  0  0  0  0  0
   -0.4934    2.0962    5.1828 H   0  0  0  0  0  0  0  0  0  0  0  0
   -1.6971    3.0649    4.3389 H   0  0  0  0  0  0  0  0  0  0  0  0
   -1.3786    3.3625    6.0497 H   0  0  0  0  0  0  0  0  0  0  0  0
    1.4427   -7.9289   -4.0402 H   0  0  0  0  0  0  0  0  0  0  0  0
    1.0308   -8.5791   -2.4412 H   0  0  0  0  0  0  0  0  0  0  0  0
   -0.5266   -9.4451   -4.1679 H   0  0  0  0  0  0  0  0  0  0  0  0
   -0.9850   -7.7954   -4.6021 H   0  0  0  0  0  0  0  0  0  0  0  0
   -1.3917   -8.4330   -3.0058 H   0  0  0  0  0  0  0  0  0  0  0  0
   -1.6639   -2.4574   -2.7623 H   0  0  0  0  0  0  0  0  0  0  0  0
   -3.8792    1.4585   -1.1489 H   0  0  0  0  0  0  0  0  0  0  0  0
   -5.1910    7.0840    0.9136 H   0  0  0  0  0  0  0  0  0  0  0  0
   -6.0656    6.0471    2.0596 H   0  0  0  0  0  0  0  0  0  0  0  0
   -7.4751    7.9663    1.3328 H   0  0  0  0  0  0  0  0  0  0  0  0
   -8.1776    6.4344    0.8042 H   0  0  0  0  0  0  0  0  0  0  0  0
   -7.3142    7.4532   -0.3520 H   0  0  0  0  0  0  0  0  0  0  0  0
   -3.4677   -0.9946  -10.8350 H   0  0  0  0  0  0  0  0  0  0  0  0
   -2.7197   -1.8506   -9.4750 H   0  0  0  0  0  0  0  0  0  0  0  0
   -0.9677   -0.9962  -10.9914 H   0  0  0  0  0  0  0  0  0  0  0  0
   -0.8775   -0.1618   -9.4340 H   0  0  0  0  0  0  0  0  0  0  0  0
   -1.5943    0.6472  -10.8300 H   0  0  0  0  0  0  0  0  0  0  0  0
   -4.2044    4.2037   -7.5443 H   0  0  0  0  0  0  0  0  0  0  0  0
   -4.7304    6.3408   -8.6873 H   0  0  0  0  0  0  0  0  0  0  0  0
   -5.9848    7.4738   -8.0985 H   0  0  0  0  0  0  0  0  0  0  0  0
   -4.2869    8.8613   -9.0331 H   0  0  0  0  0  0  0  0  0  0  0  0
   -4.3435    9.9493   -7.0035 H   0  0  0  0  0  0  0  0  0  0  0  0
   -2.1826   10.0826   -6.0636 H   0  0  0  0  0  0  0  0  0  0  0  0
   -1.9094    9.7009   -7.7670 H   0  0  0  0  0  0  0  0  0  0  0  0
   -0.4288    8.3990   -6.2788 H   0  0  0  0  0  0  0  0  0  0  0  0
   -1.3094    7.5635   -4.3009 H   0  0  0  0  0  0  0  0  0  0  0  0
   -3.2431    8.9011   -4.3048 H   0  0  0  0  0  0  0  0  0  0  0  0
   -3.7925    7.2676   -3.9774 H   0  0  0  0  0  0  0  0  0  0  0  0
   -5.2916    8.4629   -5.5152 H   0  0  0  0  0  0  0  0  0  0  0  0
   -0.2893    5.5727   -6.7064 H   0  0  0  0  0  0  0  0  0  0  0  0
   -1.8419    5.0136   -7.3772 H   0  0  0  0  0  0  0  0  0  0  0  0
   -2.3574    7.1581   -7.9995 H   0  0  0  0  0  0  0  0  0  0  0  0
   -2.4225    5.7626   -2.6957 H   0  0  0  0  0  0  0  0  0  0  0  0
   -2.4814    8.3980    1.2126 H   0  0  0  0  0  0  0  0  0  0  0  0
   -3.2194    7.6815    2.6611 H   0  0  0  0  0  0  0  0  0  0  0  0
   -0.2197    7.7883    2.0737 H   0  0  0  0  0  0  0  0  0  0  0  0
   -0.9578    7.0892    3.5175 H   0  0  0  0  0  0  0  0  0  0  0  0
   -1.0802    8.8260    3.2173 H   0  0  0  0  0  0  0  0  0  0  0  0
    1.2752   -0.9940   -8.0741 H   0  0  0  0  0  0  0  0  0  0  0  0
    2.1372   -2.1822   -7.0929 H   0  0  0  0  0  0  0  0  0  0  0  0
   -0.0420   -3.1302   -6.3287 H   0  0  0  0  0  0  0  0  0  0  0  0
   -0.9106   -1.9136   -7.2652 H   0  0  0  0  0  0  0  0  0  0  0  0
    0.0570   -3.1463   -8.0910 H   0  0  0  0  0  0  0  0  0  0  0  0
    0.9413   -0.4586   -1.8305 H   0  0  0  0  0  0  0  0  0  0  0  0
    1.8529   -2.0246   -0.5304 H   0  0  0  0  0  0  0  0  0  0  0  0
    3.7929   -7.6944   -2.1793 H   0  0  0  0  0  0  0  0  0  0  0  0
    3.8149   -6.7053   -3.6532 H   0  0  0  0  0  0  0  0  0  0  0  0
    6.2561   -6.3735   -3.4242 H   0  0  0  0  0  0  0  0  0  0  0  0
    6.2645   -7.3091   -1.9277 H   0  0  0  0  0  0  0  0  0  0  0  0
    5.8758   -8.0975   -3.4619 H   0  0  0  0  0  0  0  0  0  0  0  0
    0.5218    1.3109    7.4472 H   0  0  0  0  0  0  0  0  0  0  0  0
    1.5293    0.8600    8.8224 H   0  0  0  0  0  0  0  0  0  0  0  0
   -0.7758   -0.0473    9.0703 H   0  0  0  0  0  0  0  0  0  0  0  0
   -0.6287   -0.8810    7.5178 H   0  0  0  0  0  0  0  0  0  0  0  0
    0.3658   -1.3820    8.8871 H   0  0  0  0  0  0  0  0  0  0  0  0
    4.9241   -3.4869    5.7535 H   0  0  0  0  0  0  0  0  0  0  0  0
    6.3785   -5.4215    4.7682 H   0  0  0  0  0  0  0  0  0  0  0  0
  1  2  2  0  0  0  0
  2  3  1  0  0  0  0
  3  4  2  0  0  0  0
  4  5  1  0  0  0  0
  5  6  1  0  0  0  0
  6  7  1  0  0  0  0
  7  8  1  0  0  0  0
  8  9  1  0  0  0  0
  7 10  2  0  0  0  0
 10 11  1  0  0  0  0
 10 12  1  0  0  0  0
 12 13  1  0  0  0  0
  4 14  1  0  0  0  0
 14 15  2  0  0  0  0
 15 16  1  0  0  0  0
 16 17  1  0  0  0  0
 17 18  1  0  0  0  0
 18 19  1  0  0  0  0
 19 20  1  0  0  0  0
 20 21  1  0  0  0  0
 19 22  2  0  0  0  0
 22 23  1  0  0  0  0
 23 24  1  0  0  0  0
 22 25  1  0  0  0  0
 16 26  2  0  0  0  0
 26 27  1  0  0  0  0
 15 28  1  0  0  0  0
 28 29  2  0  0  0  0
 29 30  1  0  0  0  0
 29 31  1  0  0  0  0
 31 32  2  0  0  0  0
 32 33  1  0  0  0  0
 33 34  2  0  0  0  0
 34 35  1  0  0  0  0
 35 36  1  0  0  0  0
 36 37  1  0  0  0  0
 37 38  1  0  0  0  0
 38 39  1  0  0  0  0
 37 40  2  0  0  0  0
 40 41  1  0  0  0  0
 40 42  1  0  0  0  0
 42 43  1  0  0  0  0
 34 44  1  0  0  0  0
 44 45  2  0  0  0  0
 45 46  1  0  0  0  0
 46 47  1  0  0  0  0
 47 48  1  0  0  0  0
 48 49  1  0  0  0  0
 49 50  1  0  0  0  0
 50 51  1  0  0  0  0
 49 52  2  0  0  0  0
 52 53  1  0  0  0  0
 53 54  1  0  0  0  0
 52 55  1  0  0  0  0
 46 56  2  0  0  0  0
 56 57  1  0  0  0  0
 45 58  1  0  0  0  0
 58 59  2  0  0  0  0
 59 60  1  0  0  0  0
 59 61  1  0  0  0  0
 61 62  2  0  0  0  0
 62 63  1  0  0  0  0
 63 64  2  0  0  0  0
 64 65  1  0  0  0  0
 65 66  1  0  0  0  0
 66 67  1  0  0  0  0
 67 68  1  0  0  0  0
 68 69  1  0  0  0  0
 67 70  2  0  0  0  0
 70 71  1  0  0  0  0
 70 72  1  0  0  0  0
 72 73  1  0  0  0  0
 64 74  1  0  0  0  0
 74 75  2  0  0  0  0
 75 76  1  0  0  0  0
 76 77  1  0  0  0  0
 77 78  1  0  0  0  0
 78 79  1  0  0  0  0
 79 80  1  0  0  0  0
 80 81  1  0  0  0  0
 79 82  2  0  0  0  0
 82 83  1  0  0  0  0
 83 84  1  0  0  0  0
 82 85  1  0  0  0  0
 76 86  2  0  0  0  0
 86 87  1  0  0  0  0
 75 88  1  0  0  0  0
 88 89  2  0  0  0  0
 89 90  1  0  0  0  0
 89 91  1  0  0  0  0
 91 92  1  0  0  0  0
 92 93  1  0  0  0  0
 93 94  1  0  0  0  0
 94 95  1  0  0  0  0
 95 96  1  0  0  0  0
 96 97  1  0  0  0  0
 97 98  1  0  0  0  0
 98 99  1  0  0  0  0
 97100  1  0  0  0  0
100101  1  0  0  0  0
101102  1  0  0  0  0
100103  1  0  0  0  0
103104  2  0  0  0  0
104105  1  0  0  0  0
105106  2  0  0  0  0
106107  1  0  0  0  0
107108  1  0  0  0  0
108109  1  0  0  0  0
109110  1  0  0  0  0
110111  1  0  0  0  0
109112  2  0  0  0  0
112113  1  0  0  0  0
112114  1  0  0  0  0
114115  1  0  0  0  0
106116  1  0  0  0  0
116117  2  0  0  0  0
117118  1  0  0  0  0
118119  1  0  0  0  0
119120  1  0  0  0  0
120121  1  0  0  0  0
121122  1  0  0  0  0
122123  1  0  0  0  0
121124  2  0  0  0  0
124125  1  0  0  0  0
125126  1  0  0  0  0
124127  1  0  0  0  0
118128  2  0  0  0  0
128129  1  0  0  0  0
117130  1  0  0  0  0
130131  2  0  0  0  0
131132  1  0  0  0  0
131133  1  0  0  0  0
133134  2  0  0  0  0
134135  1  0  0  0  0
135136  2  0  0  0  0
136137  1  0  0  0  0
137138  1  0  0  0  0
138139  1  0  0  0  0
139140  1  0  0  0  0
140141  1  0  0  0  0
139142  2  0  0  0  0
142143  1  0  0  0  0
142144  1  0  0  0  0
144145  1  0  0  0  0
136146  1  0  0  0  0
146147  2  0  0  0  0
147148  1  0  0  0  0
148149  1  0  0  0  0
149150  1  0  0  0  0
150151  1  0  0  0  0
151152  1  0  0  0  0
152153  1  0  0  0  0
151154  2  0  0  0  0
154155  1  0  0  0  0
155156  1  0  0  0  0
154157  1  0  0  0  0
148158  2  0  0  0  0
158159  1  0  0  0  0
147160  1  0  0  0  0
160161  2  0  0  0  0
161162  1  0  0  0  0
 27  1  1  0  0  0  0
 57 31  1  0  0  0  0
 87 61  1  0  0  0  0
 99 91  1  0  0  0  0
129103  1  0  0  0  0
159133  1  0  0  0  0
 26  3  1  0  0  0  0
 56 33  1  0  0  0  0
 86 63  1  0  0  0  0
 99 94  1  0  0  0  0
128105  1  0  0  0  0
158135  1  0  0  0  0
 12  5  2  0  0  0  0
 30 14  1  0  0  0  0
 42 35  2  0  0  0  0
 60 44  1  0  0  0  0
 72 65  2  0  0  0  0
 90 74  1  0  0  0  0
102 96  1  0  0  0  0
114107  2  0  0  0  0
132116  1  0  0  0  0
144137  2  0  0  0  0
162146  1  0  0  0  0
 23 17  2  0  0  0  0
 53 47  2  0  0  0  0
 83 77  2  0  0  0  0
125119  2  0  0  0  0
155149  2  0  0  0  0
  1163  1  0  0  0  0
  2164  1  0  0  0  0
  8165  1  0  0  0  0
  8166  1  0  0  0  0
  9167  1  0  0  0  0
  9168  1  0  0  0  0
  9169  1  0  0  0  0
 20170  1  0  0  0  0
 20171  1  0  0  0  0
 21172  1  0  0  0  0
 21173  1  0  0  0  0
 21174  1  0  0  0  0
 28175  1  0  0  0  0
 32176  1  0  0  0  0
 38177  1  0  0  0  0
 38178  1  0  0  0  0
 39179  1  0  0  0  0
 39180  1  0  0  0  0
 39181  1  0  0  0  0
 50182  1  0  0  0  0
 50183  1  0  0  0  0
 51184  1  0  0  0  0
 51185  1  0  0  0  0
 51186  1  0  0  0  0
 58187  1  0  0  0  0
 62188  1  0  0  0  0
 68189  1  0  0  0  0
 68190  1  0  0  0  0
 69191  1  0  0  0  0
 69192  1  0  0  0  0
 69193  1  0  0  0  0
 80194  1  0  0  0  0
 80195  1  0  0  0  0
 81196  1  0  0  0  0
 81197  1  0  0  0  0
 81198  1  0  0  0  0
 88199  1  0  0  0  0
 92200  1  0  0  0  0
 92201  1  0  0  0  0
 93202  1  0  0  0  0
 94203  1  0  0  0  0
 95204  1  0  0  0  0
 95205  1  0  0  0  0
 96206  1  0  0  0  0
 97207  1  0  0  0  0
 98208  1  0  0  0  0
 98209  1  0  0  0  0
 99210  1  0  0  0  0
101211  1  0  0  0  0
101212  1  0  0  0  0
102213  1  0  0  0  0
104214  1  0  0  0  0
110215  1  0  0  0  0
110216  1  0  0  0  0
111217  1  0  0  0  0
111218  1  0  0  0  0
111219  1  0  0  0  0
122220  1  0  0  0  0
122221  1  0  0  0  0
123222  1  0  0  0  0
123223  1  0  0  0  0
123224  1  0  0  0  0
130225  1  0  0  0  0
134226  1  0  0  0  0
140227  1  0  0  0  0
140228  1  0  0  0  0
141229  1  0  0  0  0
141230  1  0  0  0  0
141231  1  0  0  0  0
152232  1  0  0  0  0
152233  1  0  0  0  0
153234  1  0  0  0  0
153235  1  0  0  0  0
153236  1  0  0  0  0
160237  1  0  0  0  0
161238  1  0  0  0  0
M  END
