238

C          4.74010      -10.13550        5.07270
C          4.35910       -8.85690        5.26880
C          3.10870       -8.55500        4.65640
C          2.42340       -7.33380        4.62880
C          2.90710       -6.12020        5.27240
S          4.45870       -5.43130        4.90120
C          4.20090       -4.07270        5.94150
C          5.23950       -3.02030        6.13300
C          4.80270       -1.66430        5.57650
C          2.97470       -4.15970        6.53080
Cl         2.36740       -3.00930        7.65080
C          2.23810       -5.31250        6.15100
Cl         0.70290       -5.67510        6.81870
C          1.23580       -7.30230        3.91040
C          0.68620       -8.41850        3.23420
C          1.35190       -9.65390        3.30420
C          0.82920      -10.83760        2.64190
S          0.44030      -10.83070        0.94630
C         -0.03510      -12.49460        0.96520
C         -0.56800      -13.15970       -0.25530
C         -2.06020      -12.86640       -0.42910
C          0.09340      -13.00720        2.22100
C          0.58850      -12.07440        3.17220
Cl         0.76960      -12.46540        4.83060
Cl        -0.29340      -14.62590        2.63810
C          2.55370       -9.68560        4.00650
S          3.60970      -11.06240        4.14980
C         -0.49460       -8.07060        2.52290
C         -0.80750       -6.74770        2.62010
S          0.30350       -5.87110        3.64830
C         -1.81500       -5.96910        1.97620
C         -1.94790       -4.61900        2.10760
C         -2.95030       -4.06710        1.28250
C         -3.25230       -2.71430        1.11380
C         -2.47240       -1.61760        1.69240
S         -1.29270       -0.83100        0.68200
C         -1.00150        0.40810        1.85070
C         -0.07930        1.54910        1.58930
C          0.84330        1.31100        0.40360
C         -1.76770        0.19800        2.95800
Cl        -1.78390        1.27120        4.29410
C         -2.59590       -0.95610        2.87680
Cl        -3.65560       -1.44310        4.13240
C         -4.25480       -2.41270        0.20810
C         -4.91210       -3.37280       -0.59830
C         -4.59330       -4.73450       -0.43410
C         -5.21150       -5.76370       -1.25420
S         -5.20820       -5.65560       -2.99070
C         -6.02920       -7.16910       -3.16720
C         -6.41190       -7.68370       -4.51070
C         -7.66810       -6.97940       -5.02870
C         -6.29210       -7.70870       -1.94390
C         -5.82430       -6.91990       -0.85790
Cl        -6.09610       -7.35870        0.77620
Cl        -7.10400       -9.20210       -1.70960
C         -3.62630       -5.05080        0.51660
S         -2.96300       -6.63530        0.83190
C         -5.78880       -2.75220       -1.53530
C         -5.82400       -1.39800       -1.42710
S         -4.78650       -0.80280       -0.13480
C         -6.31540       -0.33510       -2.26030
C         -6.56450        0.92210       -1.80050
C         -6.36670        1.93130       -2.77210
C         -6.20950        3.30200       -2.48790
C         -6.71080        3.84630       -1.24480
S         -5.75890        4.84990       -0.19090
C         -7.03870        4.98400        0.96530
C         -6.85780        5.72260        2.24550
C         -6.57180        4.75480        3.39650
C         -8.13500        4.28900        0.54630
Cl        -9.60750        4.20860        1.42370
C         -7.95200        3.63870       -0.70070
Cl        -9.19710        2.74070       -1.46550
C         -5.41380        4.00620       -3.37960
C         -4.98640        3.46780       -4.61670
C         -5.40950        2.18140       -5.02140
C         -5.11080        1.70140       -6.35000
S         -4.59120        0.07180       -6.67140
C         -4.47420        0.35940       -8.37310
C         -3.98630       -0.69510       -9.30330
C         -2.46170       -0.64490       -9.43280
C         -4.82190        1.64570       -8.66340
C         -5.18750        2.40820       -7.52480
Cl        -5.75360        4.02240       -7.65360
Cl        -4.83490        2.29580      -10.25150
C         -5.98540        1.39690       -4.02370
S         -6.05540       -0.35140       -4.00080
C         -3.91030        4.21120       -5.16800
C         -3.49580        5.23270       -4.36400
S         -4.58110        5.48890       -3.00810
C         -2.17640        5.77550       -4.28640
C         -1.54970        6.05520       -3.10640
C         -0.14180        6.10070       -3.21280
C          0.79200        6.16920       -2.16210
C          0.37810        6.24980       -0.76980
S         -0.70150        5.07130       -0.08100
C         -0.61810        5.79360        1.49070
C         -1.36090        5.23230        2.65310
C         -2.72860        4.67850        2.26760
C          0.20870        6.87630        1.46410
Cl         0.53680        7.86490        2.82660
C          0.78160        7.13360        0.18940
Cl         1.81660        8.46720       -0.10940
C          2.12390        6.02890       -2.50510
C          2.57730        5.86720       -3.83670
C          1.64600        5.88400       -4.89280
C          2.08670        5.80450       -6.27250
S          1.37800        4.69940       -7.41390
C          2.39930        5.24700       -8.70050
C          2.25730        4.70520      -10.07980
C          1.10910        5.39610      -10.81950
C          3.22840        6.23380       -8.25880
C          3.05840        6.54900       -6.88450
Cl         3.93900        7.80480       -6.11420
Cl         4.37830        7.03460       -9.25060
C          0.29930        5.93540       -4.54540
S         -1.05080        5.70750       -5.62780
C          3.95490        5.54130       -3.89600
C          4.53940        5.43270       -2.66550
S          3.43100        5.83660       -1.36530
N          5.80820        5.08010       -2.37310
C          6.73580        4.56830       -3.39120
N          7.73960        3.81820       -2.68260
C          7.75860        4.41940       -1.35660
C          8.48800        3.57460       -0.32520
C          7.70520        2.36470        0.16600
C          6.24940        2.66180        0.53550
C          5.53140        3.43870       -0.57240
C          6.27030        4.69620       -1.05140
N          5.70910        1.32100        0.58110
C          6.47540        0.45010       -0.28560
N          7.50050        1.32310       -0.83650
C          4.73170        0.88220        1.40040
C          4.14520       -0.34850        1.42040
C          3.18840       -0.49520        2.45880
C          2.40190       -1.61540        2.76830
C          2.51720       -2.85590        2.01730
S          1.13190       -3.58500        1.26160
C          2.05340       -4.91950        0.64590
C          1.35800       -5.94630       -0.18660
C          1.85190       -7.37440        0.03490
C          3.35940       -4.78970        1.01190
Cl         4.62700       -5.88190        0.62690
C          3.62240       -3.62090        1.77920
Cl         5.19710       -3.26000        2.35270
C          1.50780       -1.49160        3.82850
C          1.40170       -0.32710        4.61830
C          2.18500        0.79570        4.30530
C          2.06650        2.02240        5.08040
S          1.56900        3.51460        4.33970
C          1.62540        4.37130        5.84080
C          1.21910        5.80020        5.93250
C         -0.21510        5.92690        6.45250
C          2.01190        3.53690        6.84620
C          2.26050        2.20430        6.41910
Cl         2.79690        0.97180        7.48570
Cl         2.19630        4.03270        8.47920
C          3.04280        0.68610        3.22520
S          4.10410        1.94840        2.64780
C          0.43870       -0.47570        5.65910
C         -0.15030       -1.68690        5.65520
S          0.42140       -2.72380        4.39350
H          5.63230      -10.61830        5.42050
H          4.93370       -8.13610        5.82110
H          6.16100       -3.33910        5.64310
H          5.43610       -2.91700        7.20410
H          5.57450       -0.92210        5.76390
H          3.88370       -1.33340        6.05050
H          4.63210       -1.72580        4.50590
H         -0.02310      -12.80340       -1.13120
H         -0.41520      -14.23620       -0.16070
H         -2.22610      -11.79620       -0.52710
H         -2.61740      -13.22750        0.43160
H         -2.43680      -13.36130       -1.32010
H         -1.07360       -8.76500        1.94180
H         -1.34410       -4.02440        2.76830
H         -0.67800        2.44560        1.40040
H          0.50800        1.73870        2.49110
H          1.50890        2.16110        0.27880
H          1.44170        0.41650        0.55720
H          0.26360        1.18700       -0.50800
H         -6.59690       -8.75630       -4.43330
H         -5.59060       -7.51880       -5.21070
H         -8.49940       -7.14210       -4.34740
H         -7.93830       -7.36890       -6.00640
H         -7.49200       -5.90980       -5.11490
H         -6.35910       -3.29200       -2.26890
H         -6.74600        1.13480       -0.76200
H         -7.76900        6.28350        2.46410
H         -6.03110        6.42620        2.14030
H         -6.40900        5.30810        4.31730
H         -7.41270        4.08150        3.53900
H         -5.68650        4.16250        3.18030
H         -4.28800       -1.67440       -8.92870
H         -4.44040       -0.53750      -10.28340
H         -1.99600       -0.80320       -8.46320
H         -2.14840        0.32300       -9.81550
H         -2.11980       -1.41750      -10.11610
H         -3.35960        3.90360       -6.03870
H         -2.08090        6.13680       -2.17590
H         -1.47220        6.02480        3.39610
H         -0.76210        4.43440        3.10490
H         -2.63090        3.89060        1.52410
H         -3.35810        5.46050        1.85020
H         -3.21570        4.26370        3.14570
H          3.19230        4.86870      -10.61860
H          2.06300        3.63230      -10.03060
H          1.29580        6.46470      -10.89060
H          1.01390        4.99160      -11.82360
H          0.17270        5.24170      -10.28880
H          4.47250        5.34300       -4.81460
H          7.20680        5.42420       -3.89590
H          6.21990        3.95850       -4.13840
H          7.47810        2.83960       -2.58430
H          8.27460        5.38370       -1.45440
H          8.71010        4.19920        0.54160
H          9.43360        3.24630       -0.75910
H          8.21790        1.96530        1.06090
H          6.15050        3.16100        1.50210
H          4.53230        3.70360       -0.22540
H          5.42200        2.76430       -1.42450
H          6.13380        5.51930       -0.34420
H          6.87520       -0.39570        0.30320
H          5.85810        0.04240       -1.09890
H          8.35180        0.81940       -1.05670
H          4.37240       -1.12180        0.71240
H          1.47610       -5.68460       -1.24330
H          0.29160       -5.88770        0.04190
H          1.95060       -7.58770        1.09530
H          2.81550       -7.53370       -0.43800
H          1.14070       -8.07800       -0.39010
H          1.29330        6.25870        4.94610
H          1.89650        6.32020        6.61350
H         -0.90030        5.37770        5.81140
H         -0.51210        6.97190        6.47020
H         -0.28810        5.52640        7.46020
H          0.20640        0.29750        6.36760
H         -0.90340       -2.06190        6.31970
