
  xtb     03012217303D
 energy: -313.997799227289 gnorm: 0.000449429847 xtb: 6.4.1 (unknown)
190211  0     0  0            999 V2000
    0.1699    5.6065    3.0808 N   0  0  0  0  0  0  0  0  0  0  0  0
   -0.3120    6.2263    1.8541 C   0  0  0  0  0  0  0  0  0  0  0  0
    0.7877    6.9939    1.2842 N   0  0  0  0  0  0  0  0  0  0  0  0
    1.9876    6.2338    1.6255 C   0  0  0  0  0  0  0  0  0  0  0  0
    2.4995    5.4642    0.4077 C   0  0  0  0  0  0  0  0  0  0  0  0
    3.5891    4.4859    0.8391 C   0  0  0  0  0  0  0  0  0  0  0  0
    3.0391    3.4413    1.8509 C   0  0  0  0  0  0  0  0  0  0  0  0
    1.6422    3.7993    2.3625 C   0  0  0  0  0  0  0  0  0  0  0  0
    1.5581    5.2663    2.7844 C   0  0  0  0  0  0  0  0  0  0  0  0
    3.0172    2.2181    1.0769 N   0  0  0  0  0  0  0  0  0  0  0  0
    3.2921    2.5165   -0.3219 C   0  0  0  0  0  0  0  0  0  0  0  0
    4.0842    3.7210   -0.3024 N   0  0  0  0  0  0  0  0  0  0  0  0
    3.0091    0.9822    1.6079 C   0  0  0  0  0  0  0  0  0  0  0  0
    2.9585   -0.2173    0.9585 C   0  0  0  0  0  0  0  0  0  0  0  0
    2.9974   -1.3299    1.8334 C   0  0  0  0  0  0  0  0  0  0  0  0
    3.0184   -2.6908    1.5051 C   0  0  0  0  0  0  0  0  0  0  0  0
    2.8973   -3.1862    0.1387 C   0  0  0  0  0  0  0  0  0  0  0  0
    4.1293   -4.1383   -0.6272 S   0  0  0  0  0  0  0  0  0  0  0  0
    3.1163   -4.4918   -1.9859 C   0  0  0  0  0  0  0  0  0  0  0  0
    3.5755   -5.4038   -3.0692 C   0  0  0  0  0  0  0  0  0  0  0  0
    3.3146   -6.8652   -2.6960 C   0  0  0  0  0  0  0  0  0  0  0  0
    1.8983   -3.8995   -1.8382 C   0  0  0  0  0  0  0  0  0  0  0  0
    0.6121   -4.0914   -2.9570 Cl  0  0  0  0  0  0  0  0  0  0  0  0
    1.7796   -3.1435   -0.6414 C   0  0  0  0  0  0  0  0  0  0  0  0
    0.3664   -2.2889   -0.1794 Cl  0  0  0  0  0  0  0  0  0  0  0  0
    3.0385   -3.6032    2.5521 C   0  0  0  0  0  0  0  0  0  0  0  0
    2.9971   -3.2236    3.9090 C   0  0  0  0  0  0  0  0  0  0  0  0
    3.0468   -1.8580    4.2440 C   0  0  0  0  0  0  0  0  0  0  0  0
    3.1154   -1.4317    5.6314 C   0  0  0  0  0  0  0  0  0  0  0  0
    2.0396   -0.2304    6.2803 S   0  0  0  0  0  0  0  0  0  0  0  0
    2.7690   -0.3102    7.8478 C   0  0  0  0  0  0  0  0  0  0  0  0
    2.2502    0.4974    8.9864 C   0  0  0  0  0  0  0  0  0  0  0  0
    1.1365   -0.2487    9.7252 C   0  0  0  0  0  0  0  0  0  0  0  0
    3.7809   -1.2228    7.8532 C   0  0  0  0  0  0  0  0  0  0  0  0
    3.9834   -1.8569    6.5986 C   0  0  0  0  0  0  0  0  0  0  0  0
    5.2506   -2.9832    6.3283 Cl  0  0  0  0  0  0  0  0  0  0  0  0
    4.7424   -1.5752    9.2309 Cl  0  0  0  0  0  0  0  0  0  0  0  0
    3.0415   -0.9505    3.1970 C   0  0  0  0  0  0  0  0  0  0  0  0
    3.0926    0.7888    3.3557 S   0  0  0  0  0  0  0  0  0  0  0  0
    2.8412   -4.3476    4.7666 C   0  0  0  0  0  0  0  0  0  0  0  0
    2.8053   -5.5367    4.1218 C   0  0  0  0  0  0  0  0  0  0  0  0
    2.9938   -5.3262    2.3542 S   0  0  0  0  0  0  0  0  0  0  0  0
    2.6131   -6.7652    4.6910 N   0  0  0  0  0  0  0  0  0  0  0  0
    3.6108   -7.8220    4.5660 C   0  0  0  0  0  0  0  0  0  0  0  0
    3.0300   -8.9471    5.2507 N   0  0  0  0  0  0  0  0  0  0  0  0
    1.6008   -8.8765    4.9402 C   0  0  0  0  0  0  0  0  0  0  0  0
    1.3160   -9.7226    3.6862 C   0  0  0  0  0  0  0  0  0  0  0  0
    0.8608   -9.0102    2.4215 C   0  0  0  0  0  0  0  0  0  0  0  0
   -0.0981   -7.8200    2.6126 C   0  0  0  0  0  0  0  0  0  0  0  0
    0.2106   -6.9216    3.8299 C   0  0  0  0  0  0  0  0  0  0  0  0
    1.2822   -7.3624    4.8453 C   0  0  0  0  0  0  0  0  0  0  0  0
    0.0814   -7.0578    1.3628 N   0  0  0  0  0  0  0  0  0  0  0  0
    1.1944   -7.6845    0.6230 C   0  0  0  0  0  0  0  0  0  0  0  0
    1.9214   -8.4874    1.5689 N   0  0  0  0  0  0  0  0  0  0  0  0
   -0.9884   -6.7611    0.5225 N   0  0  0  0  0  0  0  0  0  0  0  0
   -2.0455   -7.7482    0.3071 C   0  0  0  0  0  0  0  0  0  0  0  0
   -3.2923   -7.1735    0.8285 N   0  0  0  0  0  0  0  0  0  0  0  0
   -2.9179   -6.0159    1.6333 C   0  0  0  0  0  0  0  0  0  0  0  0
   -4.0230   -4.9796    1.8061 C   0  0  0  0  0  0  0  0  0  0  0  0
   -4.3253   -4.1352    0.5781 C   0  0  0  0  0  0  0  0  0  0  0  0
   -3.1028   -3.7230   -0.2726 C   0  0  0  0  0  0  0  0  0  0  0  0
   -2.1195   -4.8735   -0.4634 C   0  0  0  0  0  0  0  0  0  0  0  0
   -1.6943   -5.5264    0.8508 C   0  0  0  0  0  0  0  0  0  0  0  0
   -3.7379   -3.4036   -1.5539 N   0  0  0  0  0  0  0  0  0  0  0  0
   -5.1021   -3.9442   -1.5441 C   0  0  0  0  0  0  0  0  0  0  0  0
   -5.2112   -4.7828   -0.3795 N   0  0  0  0  0  0  0  0  0  0  0  0
   -3.4663   -2.2139   -2.1560 C   0  0  0  0  0  0  0  0  0  0  0  0
   -2.2333   -1.7283   -2.4514 C   0  0  0  0  0  0  0  0  0  0  0  0
   -2.2469   -0.4033   -2.9558 C   0  0  0  0  0  0  0  0  0  0  0  0
   -1.1488    0.3837   -3.3375 C   0  0  0  0  0  0  0  0  0  0  0  0
    0.1881   -0.1913   -3.4314 C   0  0  0  0  0  0  0  0  0  0  0  0
    1.5230    0.3045   -2.4403 S   0  0  0  0  0  0  0  0  0  0  0  0
    2.6188   -0.7802   -3.2351 C   0  0  0  0  0  0  0  0  0  0  0  0
    4.0653   -0.8411   -2.8840 C   0  0  0  0  0  0  0  0  0  0  0  0
    4.8375    0.3116   -3.5299 C   0  0  0  0  0  0  0  0  0  0  0  0
    1.9707   -1.4635   -4.2184 C   0  0  0  0  0  0  0  0  0  0  0  0
    2.7353   -2.5936   -5.2546 Cl  0  0  0  0  0  0  0  0  0  0  0  0
    0.5906   -1.1437   -4.3213 C   0  0  0  0  0  0  0  0  0  0  0  0
   -0.4559   -1.8591   -5.4758 Cl  0  0  0  0  0  0  0  0  0  0  0  0
   -1.4060    1.6951   -3.6963 C   0  0  0  0  0  0  0  0  0  0  0  0
   -2.7083    2.2364   -3.7686 C   0  0  0  0  0  0  0  0  0  0  0  0
   -3.8153    1.4146   -3.4917 C   0  0  0  0  0  0  0  0  0  0  0  0
   -5.1690    1.9071   -3.6702 C   0  0  0  0  0  0  0  0  0  0  0  0
   -6.3720    1.7549   -2.4241 S   0  0  0  0  0  0  0  0  0  0  0  0
   -7.5819    2.5389   -3.3833 C   0  0  0  0  0  0  0  0  0  0  0  0
   -8.9770    2.6969   -2.8874 C   0  0  0  0  0  0  0  0  0  0  0  0
   -9.7852    1.4184   -3.1213 C   0  0  0  0  0  0  0  0  0  0  0  0
   -7.0712    2.8826   -4.5984 C   0  0  0  0  0  0  0  0  0  0  0  0
   -5.7058    2.5299   -4.7629 C   0  0  0  0  0  0  0  0  0  0  0  0
   -4.8620    2.7950   -6.2344 Cl  0  0  0  0  0  0  0  0  0  0  0  0
   -7.9737    3.6722   -5.8281 Cl  0  0  0  0  0  0  0  0  0  0  0  0
   -3.5523    0.1245   -3.0475 C   0  0  0  0  0  0  0  0  0  0  0  0
   -4.7446   -1.0520   -2.5577 S   0  0  0  0  0  0  0  0  0  0  0  0
   -2.7002    3.6106   -4.1211 C   0  0  0  0  0  0  0  0  0  0  0  0
   -1.4537    4.1021   -4.3684 C   0  0  0  0  0  0  0  0  0  0  0  0
   -0.2036    2.8833   -4.1405 S   0  0  0  0  0  0  0  0  0  0  0  0
   -1.1224    5.3678   -4.7230 N   0  0  0  0  0  0  0  0  0  0  0  0
    0.2059    5.7668   -5.1637 C   0  0  0  0  0  0  0  0  0  0  0  0
    0.0321    6.3716   -6.4639 N   0  0  0  0  0  0  0  0  0  0  0  0
   -1.2630    7.0427   -6.3914 C   0  0  0  0  0  0  0  0  0  0  0  0
   -1.0874    8.5030   -5.9780 C   0  0  0  0  0  0  0  0  0  0  0  0
   -2.4475    9.1821   -5.8349 C   0  0  0  0  0  0  0  0  0  0  0  0
   -3.4530    8.3376   -5.0169 C   0  0  0  0  0  0  0  0  0  0  0  0
   -2.7647    7.1655   -4.3183 C   0  0  0  0  0  0  0  0  0  0  0  0
   -2.0993    6.2488   -5.3448 C   0  0  0  0  0  0  0  0  0  0  0  0
   -3.9793    9.2659   -4.0224 N   0  0  0  0  0  0  0  0  0  0  0  0
   -3.6275   10.6046   -4.4407 C   0  0  0  0  0  0  0  0  0  0  0  0
   -2.3359   10.4028   -5.0518 N   0  0  0  0  0  0  0  0  0  0  0  0
    0.1241    6.2709    3.8471 H   0  0  0  0  0  0  0  0  0  0  0  0
   -0.5700    5.4281    1.1498 H   0  0  0  0  0  0  0  0  0  0  0  0
   -1.1930    6.8421    2.0273 H   0  0  0  0  0  0  0  0  0  0  0  0
    0.8212    7.9186    1.7002 H   0  0  0  0  0  0  0  0  0  0  0  0
    2.7804    6.9077    1.9673 H   0  0  0  0  0  0  0  0  0  0  0  0
    2.9098    6.1634   -0.3198 H   0  0  0  0  0  0  0  0  0  0  0  0
    1.6778    4.9373   -0.0713 H   0  0  0  0  0  0  0  0  0  0  0  0
    4.4097    5.0588    1.2804 H   0  0  0  0  0  0  0  0  0  0  0  0
    3.7222    3.3252    2.7041 H   0  0  0  0  0  0  0  0  0  0  0  0
    1.3869    3.1703    3.2158 H   0  0  0  0  0  0  0  0  0  0  0  0
    0.9085    3.6056    1.5814 H   0  0  0  0  0  0  0  0  0  0  0  0
    2.1854    5.4136    3.6685 H   0  0  0  0  0  0  0  0  0  0  0  0
    3.8126    1.6915   -0.8079 H   0  0  0  0  0  0  0  0  0  0  0  0
    2.3524    2.7081   -0.8570 H   0  0  0  0  0  0  0  0  0  0  0  0
    5.0633    3.4907   -0.1668 H   0  0  0  0  0  0  0  0  0  0  0  0
    2.8514   -0.3107   -0.1048 H   0  0  0  0  0  0  0  0  0  0  0  0
    3.0400   -5.1592   -3.9879 H   0  0  0  0  0  0  0  0  0  0  0  0
    4.6435   -5.2560   -3.2388 H   0  0  0  0  0  0  0  0  0  0  0  0
    3.8471   -7.1251   -1.7841 H   0  0  0  0  0  0  0  0  0  0  0  0
    2.2522   -7.0289   -2.5335 H   0  0  0  0  0  0  0  0  0  0  0  0
    3.6508   -7.5194   -3.4959 H   0  0  0  0  0  0  0  0  0  0  0  0
    1.8650    1.4461    8.6095 H   0  0  0  0  0  0  0  0  0  0  0  0
    3.0719    0.7003    9.6760 H   0  0  0  0  0  0  0  0  0  0  0  0
    0.7683    0.3525   10.5521 H   0  0  0  0  0  0  0  0  0  0  0  0
    1.5115   -1.1901   10.1186 H   0  0  0  0  0  0  0  0  0  0  0  0
    0.3109   -0.4576    9.0492 H   0  0  0  0  0  0  0  0  0  0  0  0
    2.7349   -4.2724    5.8334 H   0  0  0  0  0  0  0  0  0  0  0  0
    4.5504   -7.5054    5.0268 H   0  0  0  0  0  0  0  0  0  0  0  0
    3.8129   -8.0980    3.5181 H   0  0  0  0  0  0  0  0  0  0  0  0
    3.1681   -8.8406    6.2504 H   0  0  0  0  0  0  0  0  0  0  0  0
    1.0437   -9.3141    5.7722 H   0  0  0  0  0  0  0  0  0  0  0  0
    2.2268  -10.2743    3.4493 H   0  0  0  0  0  0  0  0  0  0  0  0
    0.5470  -10.4537    3.9405 H   0  0  0  0  0  0  0  0  0  0  0  0
    0.3439   -9.7563    1.7982 H   0  0  0  0  0  0  0  0  0  0  0  0
   -1.1267   -8.1825    2.7125 H   0  0  0  0  0  0  0  0  0  0  0  0
    0.4950   -5.9381    3.4496 H   0  0  0  0  0  0  0  0  0  0  0  0
   -0.7173   -6.7835    4.3890 H   0  0  0  0  0  0  0  0  0  0  0  0
    0.9175   -7.0298    5.8314 H   0  0  0  0  0  0  0  0  0  0  0  0
    1.8214   -6.9095    0.1790 H   0  0  0  0  0  0  0  0  0  0  0  0
    0.8035   -8.3316   -0.1774 H   0  0  0  0  0  0  0  0  0  0  0  0
    2.5219   -7.8758    2.1130 H   0  0  0  0  0  0  0  0  0  0  0  0
   -1.7829   -8.7127    0.7612 H   0  0  0  0  0  0  0  0  0  0  0  0
   -2.1638   -7.9149   -0.7730 H   0  0  0  0  0  0  0  0  0  0  0  0
   -3.8391   -7.8475    1.3509 H   0  0  0  0  0  0  0  0  0  0  0  0
   -2.5914   -6.3142    2.6483 H   0  0  0  0  0  0  0  0  0  0  0  0
   -3.7155   -4.3102    2.6122 H   0  0  0  0  0  0  0  0  0  0  0  0
   -4.9455   -5.4769    2.1120 H   0  0  0  0  0  0  0  0  0  0  0  0
   -4.8412   -3.2198    0.9028 H   0  0  0  0  0  0  0  0  0  0  0  0
   -2.5933   -2.8443    0.1341 H   0  0  0  0  0  0  0  0  0  0  0  0
   -1.2341   -4.5225   -0.9888 H   0  0  0  0  0  0  0  0  0  0  0  0
   -2.5938   -5.6316   -1.0848 H   0  0  0  0  0  0  0  0  0  0  0  0
   -1.0468   -4.8675    1.4303 H   0  0  0  0  0  0  0  0  0  0  0  0
   -5.3036   -4.4923   -2.4683 H   0  0  0  0  0  0  0  0  0  0  0  0
   -5.8279   -3.1176   -1.4602 H   0  0  0  0  0  0  0  0  0  0  0  0
   -4.8552   -5.7182   -0.5606 H   0  0  0  0  0  0  0  0  0  0  0  0
   -1.3348   -2.2959   -2.3110 H   0  0  0  0  0  0  0  0  0  0  0  0
    4.1880   -0.8025   -1.7996 H   0  0  0  0  0  0  0  0  0  0  0  0
    4.4656   -1.7941   -3.2359 H   0  0  0  0  0  0  0  0  0  0  0  0
    4.7645    0.2497   -4.6126 H   0  0  0  0  0  0  0  0  0  0  0  0
    5.8864    0.2628   -3.2490 H   0  0  0  0  0  0  0  0  0  0  0  0
    4.4309    1.2694   -3.2117 H   0  0  0  0  0  0  0  0  0  0  0  0
   -9.4458    3.5294   -3.4154 H   0  0  0  0  0  0  0  0  0  0  0  0
   -8.9584    2.9240   -1.8201 H   0  0  0  0  0  0  0  0  0  0  0  0
   -9.8243    1.1866   -4.1827 H   0  0  0  0  0  0  0  0  0  0  0  0
  -10.8003    1.5443   -2.7542 H   0  0  0  0  0  0  0  0  0  0  0  0
   -9.3244    0.5825   -2.6004 H   0  0  0  0  0  0  0  0  0  0  0  0
   -3.5894    4.2099   -4.1527 H   0  0  0  0  0  0  0  0  0  0  0  0
    0.8937    4.9205   -5.1918 H   0  0  0  0  0  0  0  0  0  0  0  0
    0.5985    6.5237   -4.4720 H   0  0  0  0  0  0  0  0  0  0  0  0
    0.0107    5.6514   -7.1791 H   0  0  0  0  0  0  0  0  0  0  0  0
   -1.7481    7.0174   -7.3714 H   0  0  0  0  0  0  0  0  0  0  0  0
   -0.5590    8.5684   -5.0296 H   0  0  0  0  0  0  0  0  0  0  0  0
   -0.4879    9.0149   -6.7306 H   0  0  0  0  0  0  0  0  0  0  0  0
   -2.8692    9.3657   -6.8404 H   0  0  0  0  0  0  0  0  0  0  0  0
   -4.2366    7.9420   -5.6821 H   0  0  0  0  0  0  0  0  0  0  0  0
   -2.0229    7.5591   -3.6260 H   0  0  0  0  0  0  0  0  0  0  0  0
   -3.4971    6.6070   -3.7354 H   0  0  0  0  0  0  0  0  0  0  0  0
   -2.8652    5.6458   -5.8494 H   0  0  0  0  0  0  0  0  0  0  0  0
   -4.9700    9.1537   -3.8546 H   0  0  0  0  0  0  0  0  0  0  0  0
   -4.3748   11.0473   -5.1435 H   0  0  0  0  0  0  0  0  0  0  0  0
   -3.5382   11.2622   -3.5699 H   0  0  0  0  0  0  0  0  0  0  0  0
   -2.0282   11.1976   -5.5978 H   0  0  0  0  0  0  0  0  0  0  0  0
  1  2  1  0  0  0  0
  2  3  1  0  0  0  0
  3  4  1  0  0  0  0
  4  5  1  0  0  0  0
  5  6  1  0  0  0  0
  6  7  1  0  0  0  0
  7  8  1  0  0  0  0
  8  9  1  0  0  0  0
  7 10  1  0  0  0  0
 10 11  1  0  0  0  0
 11 12  1  0  0  0  0
 10 13  1  0  0  0  0
 13 14  2  0  0  0  0
 14 15  1  0  0  0  0
 15 16  2  0  0  0  0
 16 17  1  0  0  0  0
 17 18  1  0  0  0  0
 18 19  1  0  0  0  0
 19 20  1  0  0  0  0
 20 21  1  0  0  0  0
 19 22  2  0  0  0  0
 22 23  1  0  0  0  0
 22 24  1  0  0  0  0
 24 25  1  0  0  0  0
 16 26  1  0  0  0  0
 26 27  2  0  0  0  0
 27 28  1  0  0  0  0
 28 29  1  0  0  0  0
 29 30  1  0  0  0  0
 30 31  1  0  0  0  0
 31 32  1  0  0  0  0
 32 33  1  0  0  0  0
 31 34  2  0  0  0  0
 34 35  1  0  0  0  0
 35 36  1  0  0  0  0
 34 37  1  0  0  0  0
 28 38  2  0  0  0  0
 38 39  1  0  0  0  0
 27 40  1  0  0  0  0
 40 41  2  0  0  0  0
 41 42  1  0  0  0  0
 41 43  1  0  0  0  0
 43 44  1  0  0  0  0
 44 45  1  0  0  0  0
 45 46  1  0  0  0  0
 46 47  1  0  0  0  0
 47 48  1  0  0  0  0
 48 49  1  0  0  0  0
 49 50  1  0  0  0  0
 50 51  1  0  0  0  0
 49 52  1  0  0  0  0
 52 53  1  0  0  0  0
 53 54  1  0  0  0  0
 52 55  1  0  0  0  0
 55 56  1  0  0  0  0
 56 57  1  0  0  0  0
 57 58  1  0  0  0  0
 58 59  1  0  0  0  0
 59 60  1  0  0  0  0
 60 61  1  0  0  0  0
 61 62  1  0  0  0  0
 62 63  1  0  0  0  0
 61 64  1  0  0  0  0
 64 65  1  0  0  0  0
 65 66  1  0  0  0  0
 64 67  1  0  0  0  0
 67 68  2  0  0  0  0
 68 69  1  0  0  0  0
 69 70  2  0  0  0  0
 70 71  1  0  0  0  0
 71 72  1  0  0  0  0
 72 73  1  0  0  0  0
 73 74  1  0  0  0  0
 74 75  1  0  0  0  0
 73 76  2  0  0  0  0
 76 77  1  0  0  0  0
 76 78  1  0  0  0  0
 78 79  1  0  0  0  0
 70 80  1  0  0  0  0
 80 81  2  0  0  0  0
 81 82  1  0  0  0  0
 82 83  1  0  0  0  0
 83 84  1  0  0  0  0
 84 85  1  0  0  0  0
 85 86  1  0  0  0  0
 86 87  1  0  0  0  0
 85 88  2  0  0  0  0
 88 89  1  0  0  0  0
 89 90  1  0  0  0  0
 88 91  1  0  0  0  0
 82 92  2  0  0  0  0
 92 93  1  0  0  0  0
 81 94  1  0  0  0  0
 94 95  2  0  0  0  0
 95 96  1  0  0  0  0
 95 97  1  0  0  0  0
 97 98  1  0  0  0  0
 98 99  1  0  0  0  0
 99100  1  0  0  0  0
100101  1  0  0  0  0
101102  1  0  0  0  0
102103  1  0  0  0  0
103104  1  0  0  0  0
104105  1  0  0  0  0
103106  1  0  0  0  0
106107  1  0  0  0  0
107108  1  0  0  0  0
  9  1  1  0  0  0  0
 39 13  1  0  0  0  0
 51 43  1  0  0  0  0
 63 55  1  0  0  0  0
 93 67  1  0  0  0  0
105 97  1  0  0  0  0
  9  4  1  0  0  0  0
 38 15  1  0  0  0  0
 51 46  1  0  0  0  0
 63 58  1  0  0  0  0
 92 69  1  0  0  0  0
105100  1  0  0  0  0
 12  6  1  0  0  0  0
 24 17  2  0  0  0  0
 42 26  1  0  0  0  0
 54 48  1  0  0  0  0
 66 60  1  0  0  0  0
 78 71  2  0  0  0  0
 96 80  1  0  0  0  0
108102  1  0  0  0  0
 35 29  2  0  0  0  0
 89 83  2  0  0  0  0
  1109  1  0  0  0  0
  2110  1  0  0  0  0
  2111  1  0  0  0  0
  3112  1  0  0  0  0
  4113  1  0  0  0  0
  5114  1  0  0  0  0
  5115  1  0  0  0  0
  6116  1  0  0  0  0
  7117  1  0  0  0  0
  8118  1  0  0  0  0
  8119  1  0  0  0  0
  9120  1  0  0  0  0
 11121  1  0  0  0  0
 11122  1  0  0  0  0
 12123  1  0  0  0  0
 14124  1  0  0  0  0
 20125  1  0  0  0  0
 20126  1  0  0  0  0
 21127  1  0  0  0  0
 21128  1  0  0  0  0
 21129  1  0  0  0  0
 32130  1  0  0  0  0
 32131  1  0  0  0  0
 33132  1  0  0  0  0
 33133  1  0  0  0  0
 33134  1  0  0  0  0
 40135  1  0  0  0  0
 44136  1  0  0  0  0
 44137  1  0  0  0  0
 45138  1  0  0  0  0
 46139  1  0  0  0  0
 47140  1  0  0  0  0
 47141  1  0  0  0  0
 48142  1  0  0  0  0
 49143  1  0  0  0  0
 50144  1  0  0  0  0
 50145  1  0  0  0  0
 51146  1  0  0  0  0
 53147  1  0  0  0  0
 53148  1  0  0  0  0
 54149  1  0  0  0  0
 56150  1  0  0  0  0
 56151  1  0  0  0  0
 57152  1  0  0  0  0
 58153  1  0  0  0  0
 59154  1  0  0  0  0
 59155  1  0  0  0  0
 60156  1  0  0  0  0
 61157  1  0  0  0  0
 62158  1  0  0  0  0
 62159  1  0  0  0  0
 63160  1  0  0  0  0
 65161  1  0  0  0  0
 65162  1  0  0  0  0
 66163  1  0  0  0  0
 68164  1  0  0  0  0
 74165  1  0  0  0  0
 74166  1  0  0  0  0
 75167  1  0  0  0  0
 75168  1  0  0  0  0
 75169  1  0  0  0  0
 86170  1  0  0  0  0
 86171  1  0  0  0  0
 87172  1  0  0  0  0
 87173  1  0  0  0  0
 87174  1  0  0  0  0
 94175  1  0  0  0  0
 98176  1  0  0  0  0
 98177  1  0  0  0  0
 99178  1  0  0  0  0
100179  1  0  0  0  0
101180  1  0  0  0  0
101181  1  0  0  0  0
102182  1  0  0  0  0
103183  1  0  0  0  0
104184  1  0  0  0  0
104185  1  0  0  0  0
105186  1  0  0  0  0
106187  1  0  0  0  0
107188  1  0  0  0  0
107189  1  0  0  0  0
108190  1  0  0  0  0
M  END
