190

N          0.16990        5.60650        3.08080
C         -0.31200        6.22630        1.85410
N          0.78770        6.99390        1.28420
C          1.98760        6.23380        1.62550
C          2.49950        5.46420        0.40770
C          3.58910        4.48590        0.83910
C          3.03910        3.44130        1.85090
C          1.64220        3.79930        2.36250
C          1.55810        5.26630        2.78440
N          3.01720        2.21810        1.07690
C          3.29210        2.51650       -0.32190
N          4.08420        3.72100       -0.30240
C          3.00910        0.98220        1.60790
C          2.95850       -0.21730        0.95850
C          2.99740       -1.32990        1.83340
C          3.01840       -2.69080        1.50510
C          2.89730       -3.18620        0.13870
S          4.12930       -4.13830       -0.62720
C          3.11630       -4.49180       -1.98590
C          3.57550       -5.40380       -3.06920
C          3.31460       -6.86520       -2.69600
C          1.89830       -3.89950       -1.83820
Cl         0.61210       -4.09140       -2.95700
C          1.77960       -3.14350       -0.64140
Cl         0.36640       -2.28890       -0.17940
C          3.03850       -3.60320        2.55210
C          2.99710       -3.22360        3.90900
C          3.04680       -1.85800        4.24400
C          3.11540       -1.43170        5.63140
S          2.03960       -0.23040        6.28030
C          2.76900       -0.31020        7.84780
C          2.25020        0.49740        8.98640
C          1.13650       -0.24870        9.72520
C          3.78090       -1.22280        7.85320
C          3.98340       -1.85690        6.59860
Cl         5.25060       -2.98320        6.32830
Cl         4.74240       -1.57520        9.23090
C          3.04150       -0.95050        3.19700
S          3.09260        0.78880        3.35570
C          2.84120       -4.34760        4.76660
C          2.80530       -5.53670        4.12180
S          2.99380       -5.32620        2.35420
N          2.61310       -6.76520        4.69100
C          3.61080       -7.82200        4.56600
N          3.03000       -8.94710        5.25070
C          1.60080       -8.87650        4.94020
C          1.31600       -9.72260        3.68620
C          0.86080       -9.01020        2.42150
C         -0.09810       -7.82000        2.61260
C          0.21060       -6.92160        3.82990
C          1.28220       -7.36240        4.84530
N          0.08140       -7.05780        1.36280
C          1.19440       -7.68450        0.62300
N          1.92140       -8.48740        1.56890
N         -0.98840       -6.76110        0.52250
C         -2.04550       -7.74820        0.30710
N         -3.29230       -7.17350        0.82850
C         -2.91790       -6.01590        1.63330
C         -4.02300       -4.97960        1.80610
C         -4.32530       -4.13520        0.57810
C         -3.10280       -3.72300       -0.27260
C         -2.11950       -4.87350       -0.46340
C         -1.69430       -5.52640        0.85080
N         -3.73790       -3.40360       -1.55390
C         -5.10210       -3.94420       -1.54410
N         -5.21120       -4.78280       -0.37950
C         -3.46630       -2.21390       -2.15600
C         -2.23330       -1.72830       -2.45140
C         -2.24690       -0.40330       -2.95580
C         -1.14880        0.38370       -3.33750
C          0.18810       -0.19130       -3.43140
S          1.52300        0.30450       -2.44030
C          2.61880       -0.78020       -3.23510
C          4.06530       -0.84110       -2.88400
C          4.83750        0.31160       -3.52990
C          1.97070       -1.46350       -4.21840
Cl         2.73530       -2.59360       -5.25460
C          0.59060       -1.14370       -4.32130
Cl        -0.45590       -1.85910       -5.47580
C         -1.40600        1.69510       -3.69630
C         -2.70830        2.23640       -3.76860
C         -3.81530        1.41460       -3.49170
C         -5.16900        1.90710       -3.67020
S         -6.37200        1.75490       -2.42410
C         -7.58190        2.53890       -3.38330
C         -8.97700        2.69690       -2.88740
C         -9.78520        1.41840       -3.12130
C         -7.07120        2.88260       -4.59840
C         -5.70580        2.52990       -4.76290
Cl        -4.86200        2.79500       -6.23440
Cl        -7.97370        3.67220       -5.82810
C         -3.55230        0.12450       -3.04750
S         -4.74460       -1.05200       -2.55770
C         -2.70020        3.61060       -4.12110
C         -1.45370        4.10210       -4.36840
S         -0.20360        2.88330       -4.14050
N         -1.12240        5.36780       -4.72300
C          0.20590        5.76680       -5.16370
N          0.03210        6.37160       -6.46390
C         -1.26300        7.04270       -6.39140
C         -1.08740        8.50300       -5.97800
C         -2.44750        9.18210       -5.83490
C         -3.45300        8.33760       -5.01690
C         -2.76470        7.16550       -4.31830
C         -2.09930        6.24880       -5.34480
N         -3.97930        9.26590       -4.02240
C         -3.62750       10.60460       -4.44070
N         -2.33590       10.40280       -5.05180
H          0.12410        6.27090        3.84710
H         -0.57000        5.42810        1.14980
H         -1.19300        6.84210        2.02730
H          0.82120        7.91860        1.70020
H          2.78040        6.90770        1.96730
H          2.90980        6.16340       -0.31980
H          1.67780        4.93730       -0.07130
H          4.40970        5.05880        1.28040
H          3.72220        3.32520        2.70410
H          1.38690        3.17030        3.21580
H          0.90850        3.60560        1.58140
H          2.18540        5.41360        3.66850
H          3.81260        1.69150       -0.80790
H          2.35240        2.70810       -0.85700
H          5.06330        3.49070       -0.16680
H          2.85140       -0.31070       -0.10480
H          3.04000       -5.15920       -3.98790
H          4.64350       -5.25600       -3.23880
H          3.84710       -7.12510       -1.78410
H          2.25220       -7.02890       -2.53350
H          3.65080       -7.51940       -3.49590
H          1.86500        1.44610        8.60950
H          3.07190        0.70030        9.67600
H          0.76830        0.35250       10.55210
H          1.51150       -1.19010       10.11860
H          0.31090       -0.45760        9.04920
H          2.73490       -4.27240        5.83340
H          4.55040       -7.50540        5.02680
H          3.81290       -8.09800        3.51810
H          3.16810       -8.84060        6.25040
H          1.04370       -9.31410        5.77220
H          2.22680      -10.27430        3.44930
H          0.54700      -10.45370        3.94050
H          0.34390       -9.75630        1.79820
H         -1.12670       -8.18250        2.71250
H          0.49500       -5.93810        3.44960
H         -0.71730       -6.78350        4.38900
H          0.91750       -7.02980        5.83140
H          1.82140       -6.90950        0.17900
H          0.80350       -8.33160       -0.17740
H          2.52190       -7.87580        2.11300
H         -1.78290       -8.71270        0.76120
H         -2.16380       -7.91490       -0.77300
H         -3.83910       -7.84750        1.35090
H         -2.59140       -6.31420        2.64830
H         -3.71550       -4.31020        2.61220
H         -4.94550       -5.47690        2.11200
H         -4.84120       -3.21980        0.90280
H         -2.59330       -2.84430        0.13410
H         -1.23410       -4.52250       -0.98880
H         -2.59380       -5.63160       -1.08480
H         -1.04680       -4.86750        1.43030
H         -5.30360       -4.49230       -2.46830
H         -5.82790       -3.11760       -1.46020
H         -4.85520       -5.71820       -0.56060
H         -1.33480       -2.29590       -2.31100
H          4.18800       -0.80250       -1.79960
H          4.46560       -1.79410       -3.23590
H          4.76450        0.24970       -4.61260
H          5.88640        0.26280       -3.24900
H          4.43090        1.26940       -3.21170
H         -9.44580        3.52940       -3.41540
H         -8.95840        2.92400       -1.82010
H         -9.82430        1.18660       -4.18270
H        -10.80030        1.54430       -2.75420
H         -9.32440        0.58250       -2.60040
H         -3.58940        4.20990       -4.15270
H          0.89370        4.92050       -5.19180
H          0.59850        6.52370       -4.47200
H          0.01070        5.65140       -7.17910
H         -1.74810        7.01740       -7.37140
H         -0.55900        8.56840       -5.02960
H         -0.48790        9.01490       -6.73060
H         -2.86920        9.36570       -6.84040
H         -4.23660        7.94200       -5.68210
H         -2.02290        7.55910       -3.62600
H         -3.49710        6.60700       -3.73540
H         -2.86520        5.64580       -5.84940
H         -4.97000        9.15370       -3.85460
H         -4.37480       11.04730       -5.14350
H         -3.53820       11.26220       -3.56990
H         -2.02820       11.19760       -5.59780
