
  xtb     03012213553D
 energy: -335.839006696918 gnorm: 0.000318227364 xtb: 6.4.1 (unknown)
208230  0     0  0            999 V2000
   11.3838   -3.8132    2.8332 C   0  0  0  0  0  0  0  0  0  0  0  0
   11.7159   -4.7785    3.7749 C   0  0  0  0  0  0  0  0  0  0  0  0
   11.4717   -4.5810    5.1234 C   0  0  0  0  0  0  0  0  0  0  0  0
   10.8789   -3.4063    5.5737 C   0  0  0  0  0  0  0  0  0  0  0  0
   10.5446   -2.4425    4.6500 C   0  0  0  0  0  0  0  0  0  0  0  0
   10.7987   -2.6475    3.2889 C   0  0  0  0  0  0  0  0  0  0  0  0
   10.3822   -1.5405    2.5646 N   0  0  0  0  0  0  0  0  0  0  0  0
   10.4461   -1.4201    1.1344 C   0  0  0  0  0  0  0  0  0  0  0  0
    9.8448   -0.5813    3.3766 C   0  0  0  0  0  0  0  0  0  0  0  0
    9.4013    0.4761    2.9926 O   0  0  0  0  0  0  0  0  0  0  0  0
    9.8764   -1.1148    4.8096 C   0  0  0  0  0  0  0  0  0  0  0  0
    8.4226   -1.2282    5.3191 C   0  0  0  0  0  0  0  0  0  0  0  0
    7.8713    0.1847    5.5354 C   0  0  0  0  0  0  0  0  0  0  0  0
    8.2593    0.9927    6.3456 O   0  0  0  0  0  0  0  0  0  0  0  0
    6.8566    0.3747    4.6448 N   0  0  0  0  0  0  0  0  0  0  0  0
    6.1736    1.6274    4.4766 C   0  0  0  0  0  0  0  0  0  0  0  0
    6.6470   -0.7499    3.8632 C   0  0  0  0  0  0  0  0  0  0  0  0
    5.7353   -0.9250    2.8429 C   0  0  0  0  0  0  0  0  0  0  0  0
    5.7081   -2.1603    2.1926 C   0  0  0  0  0  0  0  0  0  0  0  0
    6.5702   -3.1806    2.5918 C   0  0  0  0  0  0  0  0  0  0  0  0
    7.4741   -2.9963    3.6285 C   0  0  0  0  0  0  0  0  0  0  0  0
    7.5161   -1.7728    4.2593 C   0  0  0  0  0  0  0  0  0  0  0  0
    4.8592   -2.4161    1.0910 N   0  0  0  0  0  0  0  0  0  0  0  0
    4.4466   -1.2686    0.3209 C   0  0  0  0  0  0  0  0  0  0  0  0
    3.2228   -0.7929    0.9601 N   0  0  0  0  0  0  0  0  0  0  0  0
    2.5351   -1.9795    1.4597 C   0  0  0  0  0  0  0  0  0  0  0  0
    2.1006   -1.7771    2.9112 C   0  0  0  0  0  0  0  0  0  0  0  0
    1.4585   -3.0493    3.4723 C   0  0  0  0  0  0  0  0  0  0  0  0
    2.1372   -4.3385    2.9331 C   0  0  0  0  0  0  0  0  0  0  0  0
    3.5883   -4.0245    2.5671 C   0  0  0  0  0  0  0  0  0  0  0  0
    3.5954   -3.1137    1.3468 C   0  0  0  0  0  0  0  0  0  0  0  0
    2.0273   -5.2850    4.0474 N   0  0  0  0  0  0  0  0  0  0  0  0
    2.2509   -4.4277    5.2025 C   0  0  0  0  0  0  0  0  0  0  0  0
    1.6406   -3.1311    4.9231 N   0  0  0  0  0  0  0  0  0  0  0  0
    0.8249   -6.0374    4.0359 C   0  0  0  0  0  0  0  0  0  0  0  0
   -0.2427   -5.7857    4.9038 C   0  0  0  0  0  0  0  0  0  0  0  0
   -1.4303   -6.4925    4.8581 C   0  0  0  0  0  0  0  0  0  0  0  0
   -1.6309   -7.4728    3.8992 C   0  0  0  0  0  0  0  0  0  0  0  0
   -0.5905   -7.7525    3.0428 C   0  0  0  0  0  0  0  0  0  0  0  0
    0.6375   -7.0826    3.1259 C   0  0  0  0  0  0  0  0  0  0  0  0
    1.5119   -7.6335    2.1906 N   0  0  0  0  0  0  0  0  0  0  0  0
    2.9210   -7.3795    2.0499 C   0  0  0  0  0  0  0  0  0  0  0  0
    0.9114   -8.6139    1.4546 C   0  0  0  0  0  0  0  0  0  0  0  0
    1.4662   -9.2575    0.5926 O   0  0  0  0  0  0  0  0  0  0  0  0
   -0.5468   -8.7012    1.8900 C   0  0  0  0  0  0  0  0  0  0  0  0
   -1.4335   -8.2086    0.7175 C   0  0  0  0  0  0  0  0  0  0  0  0
   -1.2602   -9.1817   -0.4517 C   0  0  0  0  0  0  0  0  0  0  0  0
   -1.6575  -10.3190   -0.5128 O   0  0  0  0  0  0  0  0  0  0  0  0
   -0.5616   -8.5291   -1.4297 N   0  0  0  0  0  0  0  0  0  0  0  0
   -0.0877   -9.1734   -2.6235 C   0  0  0  0  0  0  0  0  0  0  0  0
   -0.3007   -7.2173   -1.0795 C   0  0  0  0  0  0  0  0  0  0  0  0
    0.4109   -6.2590   -1.7732 C   0  0  0  0  0  0  0  0  0  0  0  0
    0.5216   -4.9855   -1.2132 C   0  0  0  0  0  0  0  0  0  0  0  0
   -0.0858   -4.6982    0.0050 C   0  0  0  0  0  0  0  0  0  0  0  0
   -0.7907   -5.6710    0.7041 C   0  0  0  0  0  0  0  0  0  0  0  0
   -0.8811   -6.9331    0.1645 C   0  0  0  0  0  0  0  0  0  0  0  0
    1.3734   -3.9807   -1.8779 C   0  0  0  0  0  0  0  0  0  0  0  0
    2.7220   -4.2951   -2.0695 C   0  0  0  0  0  0  0  0  0  0  0  0
    3.6169   -3.4052   -2.6297 C   0  0  0  0  0  0  0  0  0  0  0  0
    3.1897   -2.1468   -3.0349 C   0  0  0  0  0  0  0  0  0  0  0  0
    1.8624   -1.8244   -2.8729 C   0  0  0  0  0  0  0  0  0  0  0  0
    0.9527   -2.7284   -2.3096 C   0  0  0  0  0  0  0  0  0  0  0  0
   -0.3202   -2.1610   -2.3152 N   0  0  0  0  0  0  0  0  0  0  0  0
   -1.5622   -2.8383   -2.0514 C   0  0  0  0  0  0  0  0  0  0  0  0
   -0.3045   -0.9056   -2.8518 C   0  0  0  0  0  0  0  0  0  0  0  0
   -1.2783   -0.1957   -2.9832 O   0  0  0  0  0  0  0  0  0  0  0  0
    1.1219   -0.5999   -3.3003 C   0  0  0  0  0  0  0  0  0  0  0  0
    1.1003   -0.4560   -4.8425 C   0  0  0  0  0  0  0  0  0  0  0  0
    0.2199   -1.5780   -5.4010 C   0  0  0  0  0  0  0  0  0  0  0  0
    0.4118   -2.7707   -5.3154 O   0  0  0  0  0  0  0  0  0  0  0  0
   -0.8664   -0.9997   -5.9874 N   0  0  0  0  0  0  0  0  0  0  0  0
   -1.9592   -1.7490   -6.5435 C   0  0  0  0  0  0  0  0  0  0  0  0
   -0.8029    0.3850   -5.9273 C   0  0  0  0  0  0  0  0  0  0  0  0
   -1.7032    1.3130   -6.4064 C   0  0  0  0  0  0  0  0  0  0  0  0
   -1.4030    2.6643   -6.2372 C   0  0  0  0  0  0  0  0  0  0  0  0
   -0.2100    3.0501   -5.6326 C   0  0  0  0  0  0  0  0  0  0  0  0
    0.6838    2.1076   -5.1435 C   0  0  0  0  0  0  0  0  0  0  0  0
    0.3788    0.7738   -5.2882 C   0  0  0  0  0  0  0  0  0  0  0  0
   -2.3149    3.6903   -6.7763 C   0  0  0  0  0  0  0  0  0  0  0  0
   -2.5737    3.6991   -8.1493 C   0  0  0  0  0  0  0  0  0  0  0  0
   -3.3372    4.6816   -8.7492 C   0  0  0  0  0  0  0  0  0  0  0  0
   -3.8775    5.7112   -7.9887 C   0  0  0  0  0  0  0  0  0  0  0  0
   -3.6604    5.7041   -6.6303 C   0  0  0  0  0  0  0  0  0  0  0  0
   -2.9021    4.6973   -6.0168 C   0  0  0  0  0  0  0  0  0  0  0  0
   -2.8999    4.8983   -4.6397 N   0  0  0  0  0  0  0  0  0  0  0  0
   -2.3984    3.9995   -3.6334 C   0  0  0  0  0  0  0  0  0  0  0  0
   -3.6089    6.0175   -4.2974 C   0  0  0  0  0  0  0  0  0  0  0  0
   -3.7940    6.3911   -3.1609 O   0  0  0  0  0  0  0  0  0  0  0  0
   -4.1380    6.6524   -5.5798 C   0  0  0  0  0  0  0  0  0  0  0  0
   -5.6719    6.7873   -5.4952 C   0  0  0  0  0  0  0  0  0  0  0  0
   -6.0079    7.9663   -4.5760 C   0  0  0  0  0  0  0  0  0  0  0  0
   -5.7335    9.1279   -4.7685 O   0  0  0  0  0  0  0  0  0  0  0  0
   -6.6669    7.4727   -3.4916 N   0  0  0  0  0  0  0  0  0  0  0  0
   -7.0503    8.2690   -2.3588 C   0  0  0  0  0  0  0  0  0  0  0  0
   -6.8187    6.0980   -3.5713 C   0  0  0  0  0  0  0  0  0  0  0  0
   -7.3745    5.2410   -2.6471 C   0  0  0  0  0  0  0  0  0  0  0  0
   -7.3985    3.8778   -2.9511 C   0  0  0  0  0  0  0  0  0  0  0  0
   -6.9017    3.4105   -4.1608 C   0  0  0  0  0  0  0  0  0  0  0  0
   -6.3311    4.2842   -5.0807 C   0  0  0  0  0  0  0  0  0  0  0  0
   -6.2900    5.6266   -4.7793 C   0  0  0  0  0  0  0  0  0  0  0  0
   -8.0161    3.0012   -1.9407 C   0  0  0  0  0  0  0  0  0  0  0  0
   -9.1976    2.3160   -2.2228 C   0  0  0  0  0  0  0  0  0  0  0  0
   -9.9251    1.6767   -1.2360 C   0  0  0  0  0  0  0  0  0  0  0  0
   -9.5165    1.7360    0.0909 C   0  0  0  0  0  0  0  0  0  0  0  0
   -8.3301    2.3699    0.3807 C   0  0  0  0  0  0  0  0  0  0  0  0
   -7.5599    2.9585   -0.6280 C   0  0  0  0  0  0  0  0  0  0  0  0
   -6.3640    3.4233   -0.0877 N   0  0  0  0  0  0  0  0  0  0  0  0
   -5.2217    3.9129   -0.8136 C   0  0  0  0  0  0  0  0  0  0  0  0
   -6.3126    3.2063    1.2584 C   0  0  0  0  0  0  0  0  0  0  0  0
   -5.3687    3.4684    1.9712 O   0  0  0  0  0  0  0  0  0  0  0  0
   -7.6637    2.6388    1.6898 C   0  0  0  0  0  0  0  0  0  0  0  0
   -8.3930    3.7656    2.4707 C   0  0  0  0  0  0  0  0  0  0  0  0
   -8.1723    5.0845    1.7249 C   0  0  0  0  0  0  0  0  0  0  0  0
   -8.5644    5.3805    0.6156 O   0  0  0  0  0  0  0  0  0  0  0  0
   -7.4125    5.8888    2.5185 N   0  0  0  0  0  0  0  0  0  0  0  0
   -6.9112    7.1692    2.1005 C   0  0  0  0  0  0  0  0  0  0  0  0
   -7.1443    5.2930    3.7438 C   0  0  0  0  0  0  0  0  0  0  0  0
   -6.4297    5.7939    4.8137 C   0  0  0  0  0  0  0  0  0  0  0  0
   -6.3301    5.0001    5.9479 C   0  0  0  0  0  0  0  0  0  0  0  0
   -6.9256    3.7516    6.0058 C   0  0  0  0  0  0  0  0  0  0  0  0
   -7.6351    3.2514    4.9204 C   0  0  0  0  0  0  0  0  0  0  0  0
   -7.7439    4.0311    3.7918 C   0  0  0  0  0  0  0  0  0  0  0  0
   11.5766   -3.9740    1.7842 H   0  0  0  0  0  0  0  0  0  0  0  0
   12.1737   -5.6995    3.4461 H   0  0  0  0  0  0  0  0  0  0  0  0
   11.7428   -5.3474    5.8333 H   0  0  0  0  0  0  0  0  0  0  0  0
   10.6877   -3.2546    6.6254 H   0  0  0  0  0  0  0  0  0  0  0  0
   10.0578   -0.4362    0.8738 H   0  0  0  0  0  0  0  0  0  0  0  0
    9.8330   -2.1890    0.6590 H   0  0  0  0  0  0  0  0  0  0  0  0
   11.4769   -1.5095    0.7864 H   0  0  0  0  0  0  0  0  0  0  0  0
   10.4197   -0.4303    5.4678 H   0  0  0  0  0  0  0  0  0  0  0  0
    8.4120   -1.7949    6.2532 H   0  0  0  0  0  0  0  0  0  0  0  0
    6.5504    2.3089    5.2379 H   0  0  0  0  0  0  0  0  0  0  0  0
    6.3814    2.0402    3.4876 H   0  0  0  0  0  0  0  0  0  0  0  0
    5.0967    1.4959    4.5992 H   0  0  0  0  0  0  0  0  0  0  0  0
    5.0531   -0.1419    2.5558 H   0  0  0  0  0  0  0  0  0  0  0  0
    6.5326   -4.1234    2.0696 H   0  0  0  0  0  0  0  0  0  0  0  0
    8.1392   -3.7949    3.9220 H   0  0  0  0  0  0  0  0  0  0  0  0
    4.2725   -1.6092   -0.7151 H   0  0  0  0  0  0  0  0  0  0  0  0
    5.2134   -0.4921    0.3136 H   0  0  0  0  0  0  0  0  0  0  0  0
    2.6491   -0.2401    0.3364 H   0  0  0  0  0  0  0  0  0  0  0  0
    1.6556   -2.2314    0.8487 H   0  0  0  0  0  0  0  0  0  0  0  0
    1.3996   -0.9444    2.9735 H   0  0  0  0  0  0  0  0  0  0  0  0
    2.9715   -1.5198    3.5125 H   0  0  0  0  0  0  0  0  0  0  0  0
    0.3918   -3.0680    3.2053 H   0  0  0  0  0  0  0  0  0  0  0  0
    1.6143   -4.7345    2.0596 H   0  0  0  0  0  0  0  0  0  0  0  0
    4.1435   -4.9363    2.3579 H   0  0  0  0  0  0  0  0  0  0  0  0
    4.0716   -3.5236    3.4033 H   0  0  0  0  0  0  0  0  0  0  0  0
    3.3756   -3.7040    0.4459 H   0  0  0  0  0  0  0  0  0  0  0  0
    3.3353   -4.2871    5.2948 H   0  0  0  0  0  0  0  0  0  0  0  0
    1.8929   -4.8801    6.1266 H   0  0  0  0  0  0  0  0  0  0  0  0
    0.7625   -3.0103    5.4110 H   0  0  0  0  0  0  0  0  0  0  0  0
   -0.1588   -5.0023    5.6404 H   0  0  0  0  0  0  0  0  0  0  0  0
   -2.2147   -6.2531    5.5597 H   0  0  0  0  0  0  0  0  0  0  0  0
   -2.5673   -8.0035    3.8277 H   0  0  0  0  0  0  0  0  0  0  0  0
    3.1010   -6.6101    1.2958 H   0  0  0  0  0  0  0  0  0  0  0  0
    3.3895   -8.3058    1.7132 H   0  0  0  0  0  0  0  0  0  0  0  0
    3.3356   -7.0707    3.0058 H   0  0  0  0  0  0  0  0  0  0  0  0
   -0.8282   -9.7277    2.1353 H   0  0  0  0  0  0  0  0  0  0  0  0
   -2.4731   -8.1556    1.0456 H   0  0  0  0  0  0  0  0  0  0  0  0
   -0.4923  -10.1844   -2.6290 H   0  0  0  0  0  0  0  0  0  0  0  0
    1.0027   -9.2231   -2.6171 H   0  0  0  0  0  0  0  0  0  0  0  0
   -0.4266   -8.6348   -3.5103 H   0  0  0  0  0  0  0  0  0  0  0  0
    0.8747   -6.4720   -2.7232 H   0  0  0  0  0  0  0  0  0  0  0  0
    0.0204   -3.7102    0.4297 H   0  0  0  0  0  0  0  0  0  0  0  0
   -1.2460   -5.4386    1.6552 H   0  0  0  0  0  0  0  0  0  0  0  0
    3.0651   -5.2709   -1.7570 H   0  0  0  0  0  0  0  0  0  0  0  0
    4.6509   -3.6885   -2.7507 H   0  0  0  0  0  0  0  0  0  0  0  0
    3.8804   -1.4440   -3.4768 H   0  0  0  0  0  0  0  0  0  0  0  0
   -2.3605   -2.1913   -2.4166 H   0  0  0  0  0  0  0  0  0  0  0  0
   -1.7074   -3.0158   -0.9853 H   0  0  0  0  0  0  0  0  0  0  0  0
   -1.5864   -3.7922   -2.5793 H   0  0  0  0  0  0  0  0  0  0  0  0
    1.4977    0.3255   -2.8577 H   0  0  0  0  0  0  0  0  0  0  0  0
    2.1218   -0.5288   -5.2226 H   0  0  0  0  0  0  0  0  0  0  0  0
   -2.8825   -1.5318   -6.0025 H   0  0  0  0  0  0  0  0  0  0  0  0
   -2.0925   -1.5065   -7.5996 H   0  0  0  0  0  0  0  0  0  0  0  0
   -1.7163   -2.8062   -6.4414 H   0  0  0  0  0  0  0  0  0  0  0  0
   -2.6242    1.0171   -6.8844 H   0  0  0  0  0  0  0  0  0  0  0  0
    0.0250    4.1017   -5.5605 H   0  0  0  0  0  0  0  0  0  0  0  0
    1.6011    2.4196   -4.6665 H   0  0  0  0  0  0  0  0  0  0  0  0
   -2.1341    2.9195   -8.7541 H   0  0  0  0  0  0  0  0  0  0  0  0
   -3.5033    4.6553   -9.8151 H   0  0  0  0  0  0  0  0  0  0  0  0
   -4.4565    6.4955   -8.4516 H   0  0  0  0  0  0  0  0  0  0  0  0
   -2.7070    2.9751   -3.8422 H   0  0  0  0  0  0  0  0  0  0  0  0
   -1.3099    4.0322   -3.5732 H   0  0  0  0  0  0  0  0  0  0  0  0
   -2.8166    4.3262   -2.6810 H   0  0  0  0  0  0  0  0  0  0  0  0
   -3.7181    7.6560   -5.7094 H   0  0  0  0  0  0  0  0  0  0  0  0
   -6.0742    6.9584   -6.4966 H   0  0  0  0  0  0  0  0  0  0  0  0
   -6.8798    9.3131   -2.6178 H   0  0  0  0  0  0  0  0  0  0  0  0
   -6.4412    8.0085   -1.4903 H   0  0  0  0  0  0  0  0  0  0  0  0
   -8.1041    8.1113   -2.1234 H   0  0  0  0  0  0  0  0  0  0  0  0
   -7.7906    5.5855   -1.7129 H   0  0  0  0  0  0  0  0  0  0  0  0
   -6.9386    2.3526   -4.3752 H   0  0  0  0  0  0  0  0  0  0  0  0
   -5.9226    3.9138   -6.0099 H   0  0  0  0  0  0  0  0  0  0  0  0
   -9.5627    2.3240   -3.2394 H   0  0  0  0  0  0  0  0  0  0  0  0
  -10.8381    1.1617   -1.4933 H   0  0  0  0  0  0  0  0  0  0  0  0
  -10.1128    1.2909    0.8733 H   0  0  0  0  0  0  0  0  0  0  0  0
   -5.3719    4.9342   -1.1671 H   0  0  0  0  0  0  0  0  0  0  0  0
   -4.3759    3.8928   -0.1252 H   0  0  0  0  0  0  0  0  0  0  0  0
   -5.0178    3.2693   -1.6700 H   0  0  0  0  0  0  0  0  0  0  0  0
   -7.5540    1.7666    2.3365 H   0  0  0  0  0  0  0  0  0  0  0  0
   -9.4558    3.5224    2.5410 H   0  0  0  0  0  0  0  0  0  0  0  0
   -7.3244    7.3771    1.1140 H   0  0  0  0  0  0  0  0  0  0  0  0
   -7.2243    7.9492    2.7969 H   0  0  0  0  0  0  0  0  0  0  0  0
   -5.8208    7.1491    2.0438 H   0  0  0  0  0  0  0  0  0  0  0  0
   -5.9575    6.7627    4.7724 H   0  0  0  0  0  0  0  0  0  0  0  0
   -5.7752    5.3652    6.7992 H   0  0  0  0  0  0  0  0  0  0  0  0
   -6.8324    3.1563    6.9014 H   0  0  0  0  0  0  0  0  0  0  0  0
   -8.0911    2.2734    4.9654 H   0  0  0  0  0  0  0  0  0  0  0  0
  1  2  2  0  0  0  0
  2  3  1  0  0  0  0
  3  4  2  0  0  0  0
  4  5  1  0  0  0  0
  5  6  2  0  0  0  0
  6  7  1  0  0  0  0
  7  8  1  0  0  0  0
  7  9  1  0  0  0  0
  9 10  2  0  0  0  0
  9 11  1  0  0  0  0
 11 12  1  0  0  0  0
 12 13  1  0  0  0  0
 13 14  2  0  0  0  0
 13 15  1  0  0  0  0
 15 16  1  0  0  0  0
 15 17  1  0  0  0  0
 17 18  2  0  0  0  0
 18 19  1  0  0  0  0
 19 20  2  0  0  0  0
 20 21  1  0  0  0  0
 21 22  2  0  0  0  0
 19 23  1  0  0  0  0
 23 24  1  0  0  0  0
 24 25  1  0  0  0  0
 25 26  1  0  0  0  0
 26 27  1  0  0  0  0
 27 28  1  0  0  0  0
 28 29  1  0  0  0  0
 29 30  1  0  0  0  0
 30 31  1  0  0  0  0
 29 32  1  0  0  0  0
 32 33  1  0  0  0  0
 33 34  1  0  0  0  0
 32 35  1  0  0  0  0
 35 36  2  0  0  0  0
 36 37  1  0  0  0  0
 37 38  2  0  0  0  0
 38 39  1  0  0  0  0
 39 40  2  0  0  0  0
 40 41  1  0  0  0  0
 41 42  1  0  0  0  0
 41 43  1  0  0  0  0
 43 44  2  0  0  0  0
 43 45  1  0  0  0  0
 45 46  1  0  0  0  0
 46 47  1  0  0  0  0
 47 48  2  0  0  0  0
 47 49  1  0  0  0  0
 49 50  1  0  0  0  0
 49 51  1  0  0  0  0
 51 52  2  0  0  0  0
 52 53  1  0  0  0  0
 53 54  2  0  0  0  0
 54 55  1  0  0  0  0
 55 56  2  0  0  0  0
 53 57  1  0  0  0  0
 57 58  2  0  0  0  0
 58 59  1  0  0  0  0
 59 60  2  0  0  0  0
 60 61  1  0  0  0  0
 61 62  2  0  0  0  0
 62 63  1  0  0  0  0
 63 64  1  0  0  0  0
 63 65  1  0  0  0  0
 65 66  2  0  0  0  0
 65 67  1  0  0  0  0
 67 68  1  0  0  0  0
 68 69  1  0  0  0  0
 69 70  2  0  0  0  0
 69 71  1  0  0  0  0
 71 72  1  0  0  0  0
 71 73  1  0  0  0  0
 73 74  2  0  0  0  0
 74 75  1  0  0  0  0
 75 76  2  0  0  0  0
 76 77  1  0  0  0  0
 77 78  2  0  0  0  0
 75 79  1  0  0  0  0
 79 80  2  0  0  0  0
 80 81  1  0  0  0  0
 81 82  2  0  0  0  0
 82 83  1  0  0  0  0
 83 84  2  0  0  0  0
 84 85  1  0  0  0  0
 85 86  1  0  0  0  0
 85 87  1  0  0  0  0
 87 88  2  0  0  0  0
 87 89  1  0  0  0  0
 89 90  1  0  0  0  0
 90 91  1  0  0  0  0
 91 92  2  0  0  0  0
 91 93  1  0  0  0  0
 93 94  1  0  0  0  0
 93 95  1  0  0  0  0
 95 96  2  0  0  0  0
 96 97  1  0  0  0  0
 97 98  2  0  0  0  0
 98 99  1  0  0  0  0
 99100  2  0  0  0  0
 97101  1  0  0  0  0
101102  2  0  0  0  0
102103  1  0  0  0  0
103104  2  0  0  0  0
104105  1  0  0  0  0
105106  2  0  0  0  0
106107  1  0  0  0  0
107108  1  0  0  0  0
107109  1  0  0  0  0
109110  2  0  0  0  0
109111  1  0  0  0  0
111112  1  0  0  0  0
112113  1  0  0  0  0
113114  2  0  0  0  0
113115  1  0  0  0  0
115116  1  0  0  0  0
115117  1  0  0  0  0
117118  2  0  0  0  0
118119  1  0  0  0  0
119120  2  0  0  0  0
120121  1  0  0  0  0
121122  2  0  0  0  0
  6  1  1  0  0  0  0
 22 12  1  0  0  0  0
 31 23  1  0  0  0  0
 40 35  1  0  0  0  0
 56 46  1  0  0  0  0
 62 57  1  0  0  0  0
 78 68  1  0  0  0  0
 84 79  1  0  0  0  0
100 90  1  0  0  0  0
106101  1  0  0  0  0
122112  1  0  0  0  0
 11  5  1  0  0  0  0
 22 17  1  0  0  0  0
 31 26  1  0  0  0  0
 45 39  1  0  0  0  0
 56 51  1  0  0  0  0
 67 61  1  0  0  0  0
 78 73  1  0  0  0  0
 89 83  1  0  0  0  0
100 95  1  0  0  0  0
111105  1  0  0  0  0
122117  1  0  0  0  0
 34 28  1  0  0  0  0
  1123  1  0  0  0  0
  2124  1  0  0  0  0
  3125  1  0  0  0  0
  4126  1  0  0  0  0
  8127  1  0  0  0  0
  8128  1  0  0  0  0
  8129  1  0  0  0  0
 11130  1  0  0  0  0
 12131  1  0  0  0  0
 16132  1  0  0  0  0
 16133  1  0  0  0  0
 16134  1  0  0  0  0
 18135  1  0  0  0  0
 20136  1  0  0  0  0
 21137  1  0  0  0  0
 24138  1  0  0  0  0
 24139  1  0  0  0  0
 25140  1  0  0  0  0
 26141  1  0  0  0  0
 27142  1  0  0  0  0
 27143  1  0  0  0  0
 28144  1  0  0  0  0
 29145  1  0  0  0  0
 30146  1  0  0  0  0
 30147  1  0  0  0  0
 31148  1  0  0  0  0
 33149  1  0  0  0  0
 33150  1  0  0  0  0
 34151  1  0  0  0  0
 36152  1  0  0  0  0
 37153  1  0  0  0  0
 38154  1  0  0  0  0
 42155  1  0  0  0  0
 42156  1  0  0  0  0
 42157  1  0  0  0  0
 45158  1  0  0  0  0
 46159  1  0  0  0  0
 50160  1  0  0  0  0
 50161  1  0  0  0  0
 50162  1  0  0  0  0
 52163  1  0  0  0  0
 54164  1  0  0  0  0
 55165  1  0  0  0  0
 58166  1  0  0  0  0
 59167  1  0  0  0  0
 60168  1  0  0  0  0
 64169  1  0  0  0  0
 64170  1  0  0  0  0
 64171  1  0  0  0  0
 67172  1  0  0  0  0
 68173  1  0  0  0  0
 72174  1  0  0  0  0
 72175  1  0  0  0  0
 72176  1  0  0  0  0
 74177  1  0  0  0  0
 76178  1  0  0  0  0
 77179  1  0  0  0  0
 80180  1  0  0  0  0
 81181  1  0  0  0  0
 82182  1  0  0  0  0
 86183  1  0  0  0  0
 86184  1  0  0  0  0
 86185  1  0  0  0  0
 89186  1  0  0  0  0
 90187  1  0  0  0  0
 94188  1  0  0  0  0
 94189  1  0  0  0  0
 94190  1  0  0  0  0
 96191  1  0  0  0  0
 98192  1  0  0  0  0
 99193  1  0  0  0  0
102194  1  0  0  0  0
103195  1  0  0  0  0
104196  1  0  0  0  0
108197  1  0  0  0  0
108198  1  0  0  0  0
108199  1  0  0  0  0
111200  1  0  0  0  0
112201  1  0  0  0  0
116202  1  0  0  0  0
116203  1  0  0  0  0
116204  1  0  0  0  0
118205  1  0  0  0  0
119206  1  0  0  0  0
120207  1  0  0  0  0
121208  1  0  0  0  0
M  END
