
  xtb     03012214513D
 energy: -196.672381804740 gnorm: 0.000342019721 xtb: 6.4.1 (unknown)
113125  0     0  0            999 V2000
    4.8643    1.0199    1.2884 C   0  0  0  0  0  0  0  0  0  0  0  0
    4.0431    0.8460   -0.1963 S   0  0  0  0  0  0  0  0  0  0  0  0
    3.3294    2.4290   -0.0882 C   0  0  0  0  0  0  0  0  0  0  0  0
    3.7432    3.0566    1.0946 C   0  0  0  0  0  0  0  0  0  0  0  0
    4.6262    2.2406    1.8815 C   0  0  0  0  0  0  0  0  0  0  0  0
    5.1480    2.7241    3.1050 C   0  0  0  0  0  0  0  0  0  0  0  0
    4.8025    3.9681    3.5352 C   0  0  0  0  0  0  0  0  0  0  0  0
    3.9318    4.7829    2.7823 C   0  0  0  0  0  0  0  0  0  0  0  0
    3.4231    4.3325    1.6000 C   0  0  0  0  0  0  0  0  0  0  0  0
    2.5996    5.1434    0.8972 F   0  0  0  0  0  0  0  0  0  0  0  0
    2.4986    2.9423   -1.1076 C   0  0  0  0  0  0  0  0  0  0  0  0
    2.0946    2.2099   -2.1805 C   0  0  0  0  0  0  0  0  0  0  0  0
    1.3430    2.6295   -3.2971 C   0  0  0  0  0  0  0  0  0  0  0  0
    0.6772    1.3719   -4.2980 S   0  0  0  0  0  0  0  0  0  0  0  0
   -0.0436    2.4782   -5.4173 C   0  0  0  0  0  0  0  0  0  0  0  0
    0.2585    3.7952   -5.0355 C   0  0  0  0  0  0  0  0  0  0  0  0
    1.0310    3.8922   -3.8321 C   0  0  0  0  0  0  0  0  0  0  0  0
    1.4249    5.1620   -3.3648 C   0  0  0  0  0  0  0  0  0  0  0  0
    1.0343    6.2898   -4.0304 C   0  0  0  0  0  0  0  0  0  0  0  0
    0.2399    6.2137   -5.1865 C   0  0  0  0  0  0  0  0  0  0  0  0
   -0.1289    4.9922   -5.6703 C   0  0  0  0  0  0  0  0  0  0  0  0
   -0.8809    4.9394   -6.7940 F   0  0  0  0  0  0  0  0  0  0  0  0
   -0.6694    2.0410   -6.6147 C   0  0  0  0  0  0  0  0  0  0  0  0
   -1.3263    0.8693   -6.8268 C   0  0  0  0  0  0  0  0  0  0  0  0
   -1.8553   -0.0205   -5.8584 C   0  0  0  0  0  0  0  0  0  0  0  0
   -2.3184    0.5026   -4.2703 S   0  0  0  0  0  0  0  0  0  0  0  0
   -3.0240   -1.0230   -3.8429 C   0  0  0  0  0  0  0  0  0  0  0  0
   -2.9295   -1.9167   -4.9193 C   0  0  0  0  0  0  0  0  0  0  0  0
   -2.2661   -1.3442   -6.0587 C   0  0  0  0  0  0  0  0  0  0  0  0
   -2.0730   -2.1043   -7.2303 C   0  0  0  0  0  0  0  0  0  0  0  0
   -2.5619   -3.3752   -7.3071 C   0  0  0  0  0  0  0  0  0  0  0  0
   -3.2700   -3.9353   -6.2287 C   0  0  0  0  0  0  0  0  0  0  0  0
   -3.4457   -3.2201   -5.0805 C   0  0  0  0  0  0  0  0  0  0  0  0
   -4.1691   -3.7978   -4.0884 F   0  0  0  0  0  0  0  0  0  0  0  0
   -3.5709   -1.1070   -2.5339 C   0  0  0  0  0  0  0  0  0  0  0  0
   -3.7205   -2.2205   -1.7788 C   0  0  0  0  0  0  0  0  0  0  0  0
   -4.3087   -2.2406   -0.5651 N   0  0  0  0  0  0  0  0  0  0  0  0
   -5.1262   -1.1885    0.0096 C   0  0  0  0  0  0  0  0  0  0  0  0
   -6.1385   -1.8812    0.7729 N   0  0  0  0  0  0  0  0  0  0  0  0
   -5.4836   -3.0791    1.2906 C   0  0  0  0  0  0  0  0  0  0  0  0
   -5.0014   -2.8445    2.7209 C   0  0  0  0  0  0  0  0  0  0  0  0
   -4.2278   -4.0663    3.2128 C   0  0  0  0  0  0  0  0  0  0  0  0
   -3.0246   -4.3951    2.2807 C   0  0  0  0  0  0  0  0  0  0  0  0
   -2.9526   -3.4683    1.0644 C   0  0  0  0  0  0  0  0  0  0  0  0
   -4.2958   -3.3754    0.3283 C   0  0  0  0  0  0  0  0  0  0  0  0
   -1.8737   -4.2220    3.1624 N   0  0  0  0  0  0  0  0  0  0  0  0
   -2.3109   -3.4075    4.2932 C   0  0  0  0  0  0  0  0  0  0  0  0
   -3.6668   -3.8135    4.5362 N   0  0  0  0  0  0  0  0  0  0  0  0
   -0.5869   -4.1062    2.7246 C   0  0  0  0  0  0  0  0  0  0  0  0
    0.4095   -2.8239    3.3346 S   0  0  0  0  0  0  0  0  0  0  0  0
    1.8276   -3.3941    2.4981 C   0  0  0  0  0  0  0  0  0  0  0  0
    1.5020   -4.5191    1.7429 C   0  0  0  0  0  0  0  0  0  0  0  0
    0.1288   -4.9289    1.8558 C   0  0  0  0  0  0  0  0  0  0  0  0
   -0.3202   -6.0776    1.1641 C   0  0  0  0  0  0  0  0  0  0  0  0
    0.5420   -6.7824    0.3794 C   0  0  0  0  0  0  0  0  0  0  0  0
    1.8871   -6.3836    0.2391 C   0  0  0  0  0  0  0  0  0  0  0  0
    2.3421   -5.2863    0.9042 C   0  0  0  0  0  0  0  0  0  0  0  0
    3.6363   -4.9242    0.7576 F   0  0  0  0  0  0  0  0  0  0  0  0
    3.1144   -2.8607    2.7855 C   0  0  0  0  0  0  0  0  0  0  0  0
    3.3968   -1.6174    3.2422 C   0  0  0  0  0  0  0  0  0  0  0  0
    2.5615   -0.4613    3.2088 C   0  0  0  0  0  0  0  0  0  0  0  0
    1.4634   -0.1556    1.9062 S   0  0  0  0  0  0  0  0  0  0  0  0
    1.1179    1.4592    2.4315 C   0  0  0  0  0  0  0  0  0  0  0  0
    1.8034    1.7354    3.6154 C   0  0  0  0  0  0  0  0  0  0  0  0
    2.6398    0.6540    4.0472 C   0  0  0  0  0  0  0  0  0  0  0  0
    3.3975    0.7658    5.2314 C   0  0  0  0  0  0  0  0  0  0  0  0
    3.3315    1.9085    5.9716 C   0  0  0  0  0  0  0  0  0  0  0  0
    2.5158    2.9834    5.5680 C   0  0  0  0  0  0  0  0  0  0  0  0
    1.7839    2.8944    4.4224 C   0  0  0  0  0  0  0  0  0  0  0  0
    1.0081    3.9435    4.0681 F   0  0  0  0  0  0  0  0  0  0  0  0
    0.2737    2.3180    1.6596 C   0  0  0  0  0  0  0  0  0  0  0  0
   -0.2616    1.9911    0.4818 C   0  0  0  0  0  0  0  0  0  0  0  0
    5.4794    0.2216    1.6512 H   0  0  0  0  0  0  0  0  0  0  0  0
    5.8126    2.0948    3.6760 H   0  0  0  0  0  0  0  0  0  0  0  0
    5.1928    4.3518    4.4652 H   0  0  0  0  0  0  0  0  0  0  0  0
    3.6591    5.7643    3.1356 H   0  0  0  0  0  0  0  0  0  0  0  0
    2.1708    3.9604   -0.9857 H   0  0  0  0  0  0  0  0  0  0  0  0
    2.3573    1.1571   -2.1866 H   0  0  0  0  0  0  0  0  0  0  0  0
    2.0470    5.2459   -2.4909 H   0  0  0  0  0  0  0  0  0  0  0  0
    1.3364    7.2611   -3.6704 H   0  0  0  0  0  0  0  0  0  0  0  0
   -0.0733    7.1077   -5.7014 H   0  0  0  0  0  0  0  0  0  0  0  0
   -0.5592    2.7061   -7.4607 H   0  0  0  0  0  0  0  0  0  0  0  0
   -1.5482    0.6069   -7.8538 H   0  0  0  0  0  0  0  0  0  0  0  0
   -1.5414   -1.6676   -8.0609 H   0  0  0  0  0  0  0  0  0  0  0  0
   -2.4241   -3.9628   -8.2015 H   0  0  0  0  0  0  0  0  0  0  0  0
   -3.6876   -4.9268   -6.3019 H   0  0  0  0  0  0  0  0  0  0  0  0
   -3.8155   -0.1491   -2.0952 H   0  0  0  0  0  0  0  0  0  0  0  0
   -3.3493   -3.1788   -2.1062 H   0  0  0  0  0  0  0  0  0  0  0  0
   -5.5655   -0.5589   -0.7644 H   0  0  0  0  0  0  0  0  0  0  0  0
   -4.5310   -0.5605    0.6890 H   0  0  0  0  0  0  0  0  0  0  0  0
   -6.9122   -2.1367    0.1694 H   0  0  0  0  0  0  0  0  0  0  0  0
   -6.1902   -3.9136    1.2990 H   0  0  0  0  0  0  0  0  0  0  0  0
   -4.3793   -1.9539    2.7706 H   0  0  0  0  0  0  0  0  0  0  0  0
   -5.8604   -2.6784    3.3688 H   0  0  0  0  0  0  0  0  0  0  0  0
   -4.9188   -4.9127    3.2598 H   0  0  0  0  0  0  0  0  0  0  0  0
   -3.0821   -5.4365    1.9483 H   0  0  0  0  0  0  0  0  0  0  0  0
   -2.6566   -2.4696    1.3913 H   0  0  0  0  0  0  0  0  0  0  0  0
   -2.1841   -3.8269    0.3769 H   0  0  0  0  0  0  0  0  0  0  0  0
   -4.4670   -4.2999   -0.2363 H   0  0  0  0  0  0  0  0  0  0  0  0
   -1.6659   -3.5755    5.1573 H   0  0  0  0  0  0  0  0  0  0  0  0
   -2.2861   -2.3346    4.0412 H   0  0  0  0  0  0  0  0  0  0  0  0
   -3.6807   -4.6597    5.0943 H   0  0  0  0  0  0  0  0  0  0  0  0
   -1.3439   -6.3972    1.2699 H   0  0  0  0  0  0  0  0  0  0  0  0
    0.2043   -7.6605   -0.1486 H   0  0  0  0  0  0  0  0  0  0  0  0
    2.5606   -6.9427   -0.3904 H   0  0  0  0  0  0  0  0  0  0  0  0
    3.9342   -3.5597    2.6877 H   0  0  0  0  0  0  0  0  0  0  0  0
    4.3934   -1.4396    3.6273 H   0  0  0  0  0  0  0  0  0  0  0  0
    4.0122   -0.0639    5.5442 H   0  0  0  0  0  0  0  0  0  0  0  0
    3.9024    2.0043    6.8822 H   0  0  0  0  0  0  0  0  0  0  0  0
    2.4633    3.8827    6.1606 H   0  0  0  0  0  0  0  0  0  0  0  0
    0.0969    3.2994    2.0747 H   0  0  0  0  0  0  0  0  0  0  0  0
   -0.8736    2.6821   -0.0689 H   0  0  0  0  0  0  0  0  0  0  0  0
   -0.0937    1.0261    0.0314 H   0  0  0  0  0  0  0  0  0  0  0  0
  1  2  1  0  0  0  0
  2  3  1  0  0  0  0
  3  4  2  0  0  0  0
  4  5  1  0  0  0  0
  5  6  1  0  0  0  0
  6  7  2  0  0  0  0
  7  8  1  0  0  0  0
  8  9  2  0  0  0  0
  9 10  1  0  0  0  0
  3 11  1  0  0  0  0
 11 12  2  0  0  0  0
 12 13  1  0  0  0  0
 13 14  1  0  0  0  0
 14 15  1  0  0  0  0
 15 16  2  0  0  0  0
 16 17  1  0  0  0  0
 17 18  1  0  0  0  0
 18 19  2  0  0  0  0
 19 20  1  0  0  0  0
 20 21  2  0  0  0  0
 21 22  1  0  0  0  0
 15 23  1  0  0  0  0
 23 24  2  0  0  0  0
 24 25  1  0  0  0  0
 25 26  1  0  0  0  0
 26 27  1  0  0  0  0
 27 28  2  0  0  0  0
 28 29  1  0  0  0  0
 29 30  1  0  0  0  0
 30 31  2  0  0  0  0
 31 32  1  0  0  0  0
 32 33  2  0  0  0  0
 33 34  1  0  0  0  0
 27 35  1  0  0  0  0
 35 36  2  0  0  0  0
 36 37  1  0  0  0  0
 37 38  1  0  0  0  0
 38 39  1  0  0  0  0
 39 40  1  0  0  0  0
 40 41  1  0  0  0  0
 41 42  1  0  0  0  0
 42 43  1  0  0  0  0
 43 44  1  0  0  0  0
 44 45  1  0  0  0  0
 43 46  1  0  0  0  0
 46 47  1  0  0  0  0
 47 48  1  0  0  0  0
 46 49  1  0  0  0  0
 49 50  1  0  0  0  0
 50 51  1  0  0  0  0
 51 52  2  0  0  0  0
 52 53  1  0  0  0  0
 53 54  1  0  0  0  0
 54 55  2  0  0  0  0
 55 56  1  0  0  0  0
 56 57  2  0  0  0  0
 57 58  1  0  0  0  0
 51 59  1  0  0  0  0
 59 60  2  0  0  0  0
 60 61  1  0  0  0  0
 61 62  1  0  0  0  0
 62 63  1  0  0  0  0
 63 64  2  0  0  0  0
 64 65  1  0  0  0  0
 65 66  1  0  0  0  0
 66 67  2  0  0  0  0
 67 68  1  0  0  0  0
 68 69  2  0  0  0  0
 69 70  1  0  0  0  0
 63 71  1  0  0  0  0
 71 72  2  0  0  0  0
  5  1  2  0  0  0  0
 17 13  2  0  0  0  0
 29 25  2  0  0  0  0
 45 37  1  0  0  0  0
 53 49  2  0  0  0  0
 65 61  2  0  0  0  0
  9  4  1  0  0  0  0
 21 16  1  0  0  0  0
 33 28  1  0  0  0  0
 45 40  1  0  0  0  0
 57 52  1  0  0  0  0
 69 64  1  0  0  0  0
 48 42  1  0  0  0  0
  1 73  1  0  0  0  0
  6 74  1  0  0  0  0
  7 75  1  0  0  0  0
  8 76  1  0  0  0  0
 11 77  1  0  0  0  0
 12 78  1  0  0  0  0
 18 79  1  0  0  0  0
 19 80  1  0  0  0  0
 20 81  1  0  0  0  0
 23 82  1  0  0  0  0
 24 83  1  0  0  0  0
 30 84  1  0  0  0  0
 31 85  1  0  0  0  0
 32 86  1  0  0  0  0
 35 87  1  0  0  0  0
 36 88  1  0  0  0  0
 38 89  1  0  0  0  0
 38 90  1  0  0  0  0
 39 91  1  0  0  0  0
 40 92  1  0  0  0  0
 41 93  1  0  0  0  0
 41 94  1  0  0  0  0
 42 95  1  0  0  0  0
 43 96  1  0  0  0  0
 44 97  1  0  0  0  0
 44 98  1  0  0  0  0
 45 99  1  0  0  0  0
 47100  1  0  0  0  0
 47101  1  0  0  0  0
 48102  1  0  0  0  0
 54103  1  0  0  0  0
 55104  1  0  0  0  0
 56105  1  0  0  0  0
 59106  1  0  0  0  0
 60107  1  0  0  0  0
 66108  1  0  0  0  0
 67109  1  0  0  0  0
 68110  1  0  0  0  0
 71111  1  0  0  0  0
 72112  1  0  0  0  0
 72113  1  0  0  0  0
M  END
