254

N          0.74390        4.88760       10.67620
C          1.07290        6.17370       11.24320
N         -0.21690        6.83220       11.30630
C         -1.04250        6.31830       10.21730
C         -2.37070        5.81070       10.78560
C         -3.22420        5.17720        9.69440
C         -2.38130        4.35560        8.68150
C         -1.05590        3.92200        9.30620
C         -0.21370        5.15850        9.61820
N         -3.24580        3.22860        8.38190
C         -4.49650        3.35390        9.13150
N         -4.20820        4.23930       10.22390
C         -3.19100        2.57370        7.19780
C         -2.19270        2.57390        6.26930
C         -2.46180        1.73690        5.15630
C         -1.65270        1.50950        4.03560
C         -0.37210        2.20680        3.85060
C         -0.30940        3.59890        3.84270
C          0.88260        4.24690        3.59220
C          2.05700        3.53180        3.37880
S          3.55320        4.42150        3.04270
C          4.22160        3.51890        1.59540
C          3.23420        3.47710        0.44660
C          1.99260        2.14590        3.46040
F          3.11930        1.40590        3.35690
C          0.79860        1.48370        3.65540
C         -2.13130        0.62190        3.08330
C         -3.39900       -0.00050        3.16650
C         -4.21080        0.22430        4.29370
C         -5.52200       -0.41870        4.43120
C         -6.46570       -0.37580        3.40620
C         -7.69190       -0.98630        3.55650
C         -8.02200       -1.67730        4.72170
S         -9.60380       -2.46050        4.78090
C        -10.08160       -2.33890        6.55210
C        -11.59320       -2.38420        6.65640
C         -7.06230       -1.72970        5.72660
C         -5.84350       -1.09680        5.60130
F         -7.28550       -2.42430        6.86880
C         -3.70510        1.06780        5.26600
S         -4.52390        1.52460        6.74570
C         -3.65740       -0.82410        2.04090
C         -2.64530       -0.83280        1.13040
S         -1.30090        0.18360        1.61760
C         -2.57220       -1.51080       -0.12290
C         -1.45010       -1.76840       -0.84890
C         -1.70550       -2.38210       -2.10030
C         -0.76700       -2.78370       -3.06780
C          0.66570       -2.80460       -2.76780
C          1.62040       -2.39170       -3.69460
C          2.96440       -2.46570       -3.40400
C          3.41750       -2.91140       -2.16590
S          5.15870       -2.84640       -1.86330
C          5.52050       -4.39760       -0.96100
C          5.09780       -5.62030       -1.74900
C          2.45740       -3.30810       -1.24170
F          2.81770       -3.75150       -0.01470
C          1.11090       -3.28400       -1.53680
C         -1.28240       -3.17140       -4.29780
C         -2.66840       -3.26660       -4.55990
C         -3.60130       -3.03050       -3.53420
C         -5.02720       -3.30730       -3.73720
C         -6.02480       -2.43680       -3.30010
C         -7.35480       -2.72170       -3.52000
C         -7.75630       -3.89320       -4.16090
S         -9.49650       -4.15070       -4.33000
C         -9.69190       -5.04230       -5.91720
C         -9.12360       -4.26140       -7.08510
C         -6.75320       -4.77650       -4.54880
C         -5.41680       -4.49040       -4.36160
F         -7.05280       -5.96290       -5.12790
C         -3.09330       -2.54200       -2.33590
S         -4.02310       -2.04380       -0.94380
C         -2.93240       -3.56680       -5.92960
C         -1.82210       -3.74290       -6.68200
S         -0.34270       -3.58360       -5.71070
N         -1.77180       -3.95630       -8.04410
C         -0.72140       -4.82900       -8.56400
N         -0.85710       -4.74980       -9.99530
C         -1.27070       -3.37340      -10.27690
C         -0.09580       -2.56370      -10.82980
C         -0.44840       -1.07130      -10.85500
C         -0.68640       -0.53340       -9.42970
C         -0.88440       -1.66250       -8.41420
C         -1.78330       -2.78850       -8.93390
N          0.51590        0.25580       -9.16390
C          1.45390        0.12590      -10.25140
N          0.60260       -0.20750      -11.36600
C          0.95030        0.50400       -7.90190
C          0.19590        0.72470       -6.79010
C          0.95100        0.77520       -5.58950
C          0.47780        0.80890       -4.26790
C         -0.94980        0.83970       -3.93090
C         -1.88360        0.04670       -4.59390
C         -3.22750        0.10650       -4.28620
C         -3.69110        0.95460       -3.28830
S         -5.39270        1.11310       -2.83890
C         -6.24480        0.93090       -4.44780
C         -5.84270        2.01340       -5.42960
C         -2.74620        1.70530       -2.59240
F         -3.15270        2.52050       -1.60090
C         -1.40570        1.66850       -2.90620
C          1.44110        0.74000       -3.26950
C          2.83570        0.71130       -3.51090
C          3.31060        0.73780       -4.83640
C          4.74600        0.78510       -5.14820
C          5.21980        1.72390       -6.06650
C          6.56650        1.84060       -6.33240
C          7.50210        1.02340       -5.70080
S          9.20690        1.24950       -6.10430
C         10.05580        0.94640       -4.50000
C         11.36400        1.71160       -4.48270
C          7.01570        0.06170       -4.82200
C          5.67080       -0.05700       -4.53700
F          7.85850       -0.80180       -4.20790
C          2.34690        0.72040       -5.83290
S          2.67530        0.49430       -7.53960
C          3.57430        0.53270       -2.31190
C          2.78640        0.33320       -1.21820
S          1.08620        0.51690       -1.58280
C          3.15020       -0.14490        0.07610
C          4.38530       -0.32530        0.62190
C          4.35410       -0.99640        1.87270
C          5.43090       -1.33330        2.70930
C          6.81310       -1.09850        2.27830
C          7.22090       -1.49010        1.00550
C          8.50950       -1.27230        0.56040
C          9.44430       -0.64930        1.37920
S         11.10970       -0.29620        0.93280
C         11.21050       -0.86380       -0.80710
C         12.60790       -0.58410       -1.32750
C          9.02820       -0.27430        2.65870
F          9.91240        0.33150        3.47800
C          7.74660       -0.48810        3.11370
C          5.10970       -1.92430        3.92420
C          3.78250       -2.22160        4.32220
C          2.71150       -1.91490        3.47380
C          1.30640       -2.19920        3.80080
C          0.50040       -2.87670        2.88620
C         -0.82940       -3.11260        3.15850
C         -1.41650       -2.66800        4.34100
S         -3.13670       -3.01460        4.57550
C         -3.23680       -3.51690        6.33370
C         -2.36520       -4.72000        6.63230
C         -0.61270       -1.95750        5.22640
C          0.73070       -1.74450        4.98340
F         -1.12620       -1.44340        6.36700
C          3.03200       -1.30790        2.26930
S          1.87340       -0.77640        1.08980
C          3.74580       -2.88230        5.58600
C          4.97080       -3.07050        6.11600
S          6.25490       -2.46510        5.12640
H          1.55870        4.37990       10.35480
H          1.81070        6.74020       10.62780
H          1.48330        6.04980       12.25080
H         -0.13760        7.83970       11.30790
H         -1.24800        7.07750        9.44990
H         -2.13790        5.08340       11.56310
H         -2.90800        6.63390       11.25460
H         -3.77780        5.95160        9.14910
H         -2.17820        4.93360        7.77010
H         -1.24010        3.37360       10.22970
H         -0.51690        3.25940        8.62880
H          0.27270        5.51090        8.68900
H         -5.27640        3.80120        8.49330
H         -4.84450        2.37570        9.47200
H         -3.79460        3.72160       10.99400
H         -1.28220        3.13410        6.36830
H         -1.21220        4.17140        3.99310
H          0.92380        5.32440        3.54940
H          4.52300        2.52070        1.90780
H          5.11090        4.09060        1.33070
H          2.35050        2.89890        0.71300
H          2.91880        4.48310        0.17710
H          3.69910        3.01100       -0.42050
H          0.79080        0.40620        3.67820
H         -6.24640        0.16730        2.49980
H         -8.42510       -0.94080        2.76620
H         -9.68850       -1.39500        6.92670
H         -9.62510       -3.16840        7.09040
H        -11.89220       -2.31050        7.69990
H        -12.03870       -1.55980        6.10430
H        -11.97520       -3.31750        6.24890
H         -5.13790       -1.16940        6.41310
H         -4.54910       -1.41290        1.92230
H         -0.47270       -1.48800       -0.50260
H          1.31510       -1.99010       -4.64680
H          3.68700       -2.17020       -4.14710
H          6.60290       -4.36850       -0.83210
H          5.04560       -4.35550        0.01740
H          4.01820       -5.63900       -1.88870
H          5.57310       -5.62710       -2.72790
H          5.38980       -6.51990       -1.21110
H          0.41340       -3.64720       -0.79850
H         -5.75950       -1.51990       -2.79960
H         -8.11810       -2.03360       -3.19140
H        -10.77300       -5.15000       -6.00710
H         -9.24430       -6.02960       -5.82940
H         -8.04440       -4.15600       -6.99270
H         -9.33840       -4.78460       -8.01480
H         -9.56580       -3.26820       -7.13150
H         -4.68590       -5.22190       -4.67030
H         -3.92200       -3.61910       -6.34600
H         -0.85360       -5.84640       -8.19350
H          0.28160       -4.47480       -8.26890
H         -1.56690       -5.40080      -10.30960
H         -2.07130       -3.36900      -11.02220
H          0.12440       -2.90890      -11.84120
H          0.79040       -2.73930      -10.22000
H         -1.33890       -0.93270      -11.47900
H         -1.55600        0.13510       -9.41490
H         -1.32670       -1.26400       -7.50180
H          0.09010       -2.07870       -8.14920
H         -2.81250       -2.42500       -9.02340
H          2.22890       -0.63750      -10.01720
H          1.96250        1.07980      -10.43410
H          1.11000       -0.62130      -12.13810
H         -0.86680        0.86740       -6.82820
H         -1.55140       -0.65300       -5.34340
H         -3.92050       -0.52050       -4.82540
H         -7.29930        1.01190       -4.18540
H         -6.06010       -0.06920       -4.83910
H         -6.03390        2.99690       -5.00660
H         -6.41610        1.91160       -6.34900
H         -4.78340        1.94190       -5.67070
H         -0.73170        2.31220       -2.36420
H          4.52480        2.39200       -6.55110
H          6.92330        2.58170       -7.03040
H          9.38550        1.29450       -3.71520
H         10.22290       -0.12510       -4.39630
H         11.18430        2.77620       -4.61400
H         12.01520        1.37120       -5.28450
H         11.86990        1.55660       -3.53230
H          5.37090       -0.83430       -3.85220
H          4.64590        0.49430       -2.26500
H          5.28840        0.02130        0.15470
H          6.52200       -1.98740        0.35200
H          8.77470       -1.59160       -0.43410
H         10.46200       -0.32010       -1.38400
H         10.99720       -1.93240       -0.82830
H         13.34680       -1.12740       -0.74330
H         12.68560       -0.89670       -2.36680
H         12.83440        0.47770       -1.26040
H          7.47960       -0.15520        4.10390
H          0.93490       -3.24800        1.97170
H         -1.44600       -3.65160        2.45590
H         -2.98150       -2.66540        6.96080
H         -4.29230       -3.75480        6.46550
H         -1.31290       -4.48280        6.48430
H         -2.62640       -5.55070        5.98020
H         -2.50690       -5.02820        7.66620
H          1.30840       -1.18640        5.70510
H          2.83460       -3.20750        6.05490
H          5.22180       -3.53650        7.04900
