218

C          6.63330       -7.96940        2.56550
C          6.50060       -6.95660        3.44560
C          5.40790       -6.09500        3.13810
C          4.94340       -4.97250        3.84590
C          5.55560       -4.55800        5.10080
S          7.23410       -4.12130        5.20550
C          7.12340       -3.78350        6.90000
C          8.29270       -3.27550        7.66930
C          8.34880       -1.74640        7.63200
C          5.85170       -3.99390        7.34060
Cl         5.35470       -3.76840        8.96780
C          4.96230       -4.43600        6.32490
Cl         3.32960       -4.84270        6.64280
C          3.86260       -4.29140        3.31520
C          3.20030       -4.68020        2.12170
C          3.59900       -5.85960        1.47710
C          2.84460       -6.47640        0.39240
S          2.68720       -5.82820       -1.21090
C          1.85850       -7.23800       -1.78980
C          1.47140       -7.41030       -3.22040
C         -0.04480       -7.40280       -3.41920
C          1.68200       -8.12660       -0.77250
C          2.23740       -7.69830        0.46030
Cl         2.13200       -8.62930        1.89670
Cl         0.90740       -9.64930       -0.95010
C          4.71110       -6.52300        1.98880
S          5.43540       -7.95700        1.31500
C          2.12740       -3.82080        1.78810
C          1.94190       -2.82970        2.70950
S          3.11360       -2.87760        4.01400
N          1.05210       -1.81520        2.77490
N          0.76330       -1.28620        4.04040
C         -0.09120       -0.15650        3.73270
C          0.75490        1.11350        3.57570
C          1.95170        0.94170        2.64410
C         -0.19960        2.25620        3.20150
C         -1.25960        1.89930        2.12400
N         -1.18530        2.95670        1.12110
S         -0.65220        4.37990        1.91180
N          0.53180        3.39680        2.67110
C         -1.03200        0.55760        1.41750
C         -2.21580        0.25290        0.50120
C         -0.84460       -0.57710        2.43710
N         -0.04060       -1.66880        1.87790
C         -0.68830       -2.89730        1.58950
C         -0.97070       -3.20910        0.31830
N         -1.28020       -4.45450       -0.14110
N         -1.53080       -5.48880        0.76250
C         -1.94660       -6.57460       -0.10790
C         -2.60330       -7.74290        0.60980
C         -1.69310       -8.27540        1.71420
C         -3.99450       -7.38330        1.13840
C         -4.90640       -6.77290        0.05420
N         -6.08600       -6.29880        0.76240
S         -5.50050       -5.51410        2.17000
N         -3.95390       -6.37620        2.19020
C         -4.26030       -5.57340       -0.64420
C         -5.14710       -5.08400       -1.78470
C         -2.83880       -5.85530       -1.15330
N         -2.15450       -4.58150       -1.30190
C         -1.56840       -4.18470       -2.49200
C         -2.03340       -4.41720       -3.72080
N         -1.56530       -3.75200       -4.88090
N         -1.31190       -4.64090       -5.96530
C          0.14360       -4.75720       -6.12610
C          0.63840       -4.30050       -7.50230
C          0.19010       -2.89020       -7.89220
C          2.16710       -4.50910       -7.54040
C          2.90830       -4.07250       -6.23600
N          4.10280       -3.40060       -6.72030
S          3.57350       -2.44650       -8.07650
N          2.74930       -3.80640       -8.68110
C          2.06080       -3.21090       -5.28180
C          2.83000       -2.96840       -3.97880
C          0.73200       -3.90000       -4.97650
N         -0.38720       -3.01160       -4.71880
C         -0.39900       -1.76440       -4.20460
C         -1.51010       -1.05890       -3.90400
C         -1.45820        0.25390       -3.35900
C         -2.50230        1.09770       -3.10870
C         -2.11380        2.34340       -2.55590
C         -2.92550        3.41390       -2.14660
C         -4.37770        3.33010       -2.19090
S         -5.26460        3.14010       -3.67080
C         -6.78970        3.15380       -2.85010
C         -8.07210        3.07570       -3.60280
C         -8.52170        4.46470       -4.06230
C         -6.60530        3.30300       -1.50840
Cl        -7.88600        3.35860       -0.36420
C         -5.23940        3.39570       -1.13400
Cl        -4.73110        3.50680        0.49890
C         -2.29420        4.53630       -1.62820
C         -0.89240        4.62980       -1.46890
C         -0.08430        3.53830       -1.82150
C          1.34510        3.53540       -1.56070
S          2.04370        2.28030       -0.58830
C          3.63190        2.95220       -0.71990
C          4.80240        2.27950       -0.09090
C          5.10310        0.94390       -0.77280
C          3.60470        4.08180       -1.48160
C          2.30760        4.41970       -1.95470
Cl         2.01710        5.76390       -2.98450
Cl         4.99080        5.02750       -1.85200
C         -0.71570        2.42880       -2.36130
S          0.07780        0.97210       -2.88580
C         -0.50540        5.85790       -0.87180
C         -1.56130        6.66060       -0.58610
S         -3.10460        5.97010       -1.05570
N         -1.50650        7.91590        0.00170
N         -0.89800        7.97240        1.29680
C         -2.03870        7.87350        2.21570
C         -1.71200        8.15180        3.67660
C         -0.70120        7.14950        4.22910
C         -1.22810        9.58010        3.88300
C         -2.16910       10.64020        3.26650
N         -1.43490       11.88470        3.42790
S          0.29490       11.51340        3.45510
N          0.09070        9.82310        3.33680
C         -2.52580       10.35300        1.79280
C         -3.60490       11.33540        1.33420
C         -2.97140        8.89320        1.54640
N         -2.79780        8.49600        0.15970
C         -3.34830        9.15190       -0.91920
C         -2.79300        9.28780       -2.11770
H          7.36710       -8.75100        2.56150
H          7.15090       -6.81120        4.28880
H          9.21110       -3.68470        7.24520
H          8.20410       -3.61110        8.70450
H          7.44300       -1.32660        8.06180
H          9.20300       -1.39000        8.20140
H          8.44100       -1.39700        6.60650
H          1.93050       -6.61620       -3.81170
H          1.86930       -8.36720       -3.57020
H         -0.46680       -6.45050       -3.10790
H         -0.50350       -8.19810       -2.83850
H         -0.28780       -7.55950       -4.46690
H          1.50990       -3.95670        0.92260
H          0.27480       -1.97300        4.62480
H         -0.80120        0.00700        4.54890
H          1.16010        1.34470        4.56810
H          1.67370        0.52000        1.68660
H          2.67470        0.28250        3.11650
H          2.41180        1.90990        2.47140
H         -0.75570        2.53020        4.11690
H         -2.24720        1.86740        2.61430
H         -2.06850        3.12300        0.65250
H          1.03200        3.91400        3.38500
H         -0.13470        0.64620        0.80350
H         -3.14900        0.26020        1.06290
H         -2.09750       -0.72410        0.04450
H         -2.28400        0.99430       -0.28900
H         -1.83870       -0.96030        2.71090
H         -0.76840       -3.63160        2.38450
H         -0.85820       -2.46430       -0.45450
H         -2.30060       -5.26910        1.40850
H         -1.04090       -6.93520       -0.61420
H         -2.75520       -8.53400       -0.13430
H         -0.77080       -8.65290        1.28360
H         -2.17880       -9.08680        2.25180
H         -1.44190       -7.48140        2.41110
H         -4.46980       -8.31580        1.49460
H         -5.20240       -7.52930       -0.67840
H         -6.70140       -7.06700        1.01910
H         -3.81490       -6.79230        3.10490
H         -4.19490       -4.76950        0.09590
H         -5.23730       -5.84870       -2.55410
H         -4.71860       -4.18920       -2.22740
H         -6.13880       -4.85380       -1.40590
H         -2.86630       -6.40200       -2.09870
H         -0.72780       -3.52210       -2.34440
H         -2.87870       -5.04720       -3.93790
H         -1.72410       -4.23480       -6.80190
H          0.42000       -5.80990       -5.98980
H          0.21910       -4.98260       -8.25130
H          0.76720       -2.56210       -8.75160
H          0.31610       -2.16830       -7.09290
H         -0.85960       -2.89200       -8.17990
H          2.34030       -5.58190       -7.68010
H          3.24240       -4.96580       -5.69240
H          4.56180       -2.82940       -6.02310
H          3.39410       -4.40000       -9.19190
H          1.88030       -2.25060       -5.77380
H          2.20680       -2.46610       -3.24420
H          3.70440       -2.34380       -4.14700
H          3.15980       -3.91220       -3.54670
H          0.87440       -4.54920       -4.09760
H          0.57360       -1.32150       -4.05210
H         -2.48760       -1.48000       -4.08050
H         -3.52340        0.83810       -3.32180
H         -8.83490        2.64060       -2.95410
H         -7.94200        2.42960       -4.47270
H         -9.45820        4.39300       -4.60870
H         -7.77050        4.90830       -4.71140
H         -8.66710        5.11630       -3.20430
H          4.59570        2.10090        0.96670
H          5.66670        2.94080       -0.16980
H          5.95970        0.46790       -0.30320
H          4.24560        0.28040       -0.69110
H          5.32440        1.09980       -1.82580
H          0.51270        6.12470       -0.66060
H         -0.26320        7.18230        1.39400
H         -2.50370        6.87360        2.14900
H         -2.65330        8.04560        4.22860
H         -1.02270        6.13360        4.01300
H          0.27430        7.31710        3.78240
H         -0.60940        7.27200        5.30500
H         -1.15710        9.79230        4.95780
H         -3.08940       10.71380        3.85910
H         -1.60930       12.53710        2.67090
H          0.13870        9.49660        2.37020
H         -1.62190       10.51500        1.19270
H         -4.56990       11.06080        1.75740
H         -3.37480       12.34720        1.66260
H         -3.68460       11.34820        0.25130
H         -4.01540        8.75530        1.84300
H         -4.36420        9.46670       -0.72560
H         -3.34100        9.72890       -2.92840
H         -1.79070        8.95690       -2.32140
