
  xtb     03012221393D
 energy: -471.430234864309 gnorm: 0.000236579555 xtb: 6.4.1 (unknown)
245272  0     0  0            999 V2000
    4.8818    4.6379    4.6404 C   0  0  0  0  0  0  0  0  0  0  0  0
    4.1083    5.6210    4.1363 C   0  0  0  0  0  0  0  0  0  0  0  0
    2.8749    5.1378    3.6102 C   0  0  0  0  0  0  0  0  0  0  0  0
    1.8395    5.8654    3.0018 C   0  0  0  0  0  0  0  0  0  0  0  0
    1.8747    7.3171    2.9336 C   0  0  0  0  0  0  0  0  0  0  0  0
    1.6588    8.1702    1.4345 S   0  0  0  0  0  0  0  0  0  0  0  0
    1.8130    9.7148    2.1983 C   0  0  0  0  0  0  0  0  0  0  0  0
    1.7777   10.9748    1.4063 C   0  0  0  0  0  0  0  0  0  0  0  0
    3.1649   11.3138    0.8554 C   0  0  0  0  0  0  0  0  0  0  0  0
    2.0221    9.5620    3.5362 C   0  0  0  0  0  0  0  0  0  0  0  0
    2.2197   10.8700    4.6295 Cl  0  0  0  0  0  0  0  0  0  0  0  0
    2.0527    8.2052    3.9575 C   0  0  0  0  0  0  0  0  0  0  0  0
    2.2179    7.7528    5.6054 Cl  0  0  0  0  0  0  0  0  0  0  0  0
    0.7727    5.1373    2.4929 C   0  0  0  0  0  0  0  0  0  0  0  0
    0.6824    3.7283    2.5958 C   0  0  0  0  0  0  0  0  0  0  0  0
    1.6961    3.0044    3.2413 C   0  0  0  0  0  0  0  0  0  0  0  0
    1.6075    1.5630    3.4174 C   0  0  0  0  0  0  0  0  0  0  0  0
    1.4403    0.4706    2.0762 S   0  0  0  0  0  0  0  0  0  0  0  0
    1.4085   -0.9160    3.1092 C   0  0  0  0  0  0  0  0  0  0  0  0
    1.3035   -2.2945    2.5538 C   0  0  0  0  0  0  0  0  0  0  0  0
    2.5589   -3.1151    2.8517 C   0  0  0  0  0  0  0  0  0  0  0  0
    1.5138   -0.5373    4.4151 C   0  0  0  0  0  0  0  0  0  0  0  0
    1.6342    0.8656    4.5927 C   0  0  0  0  0  0  0  0  0  0  0  0
    1.7187    1.5956    6.1409 Cl  0  0  0  0  0  0  0  0  0  0  0  0
    1.4734   -1.6223    5.7432 Cl  0  0  0  0  0  0  0  0  0  0  0  0
    2.7739    3.7313    3.7308 C   0  0  0  0  0  0  0  0  0  0  0  0
    4.1781    3.0634    4.5100 S   0  0  0  0  0  0  0  0  0  0  0  0
   -0.5241    3.2340    2.0414 C   0  0  0  0  0  0  0  0  0  0  0  0
   -1.3270    4.2080    1.5306 C   0  0  0  0  0  0  0  0  0  0  0  0
   -0.6364    5.8073    1.7202 S   0  0  0  0  0  0  0  0  0  0  0  0
   -2.5709    4.0277    0.8583 C   0  0  0  0  0  0  0  0  0  0  0  0
   -3.2764    4.9316    0.1234 C   0  0  0  0  0  0  0  0  0  0  0  0
   -4.4170    4.3759   -0.5060 C   0  0  0  0  0  0  0  0  0  0  0  0
   -5.3547    5.0436   -1.3100 C   0  0  0  0  0  0  0  0  0  0  0  0
   -5.1602    6.4308   -1.6960 C   0  0  0  0  0  0  0  0  0  0  0  0
   -3.6828    6.9200   -2.4743 S   0  0  0  0  0  0  0  0  0  0  0  0
   -4.2293    8.5496   -2.6626 C   0  0  0  0  0  0  0  0  0  0  0  0
   -3.3952    9.5629   -3.3647 C   0  0  0  0  0  0  0  0  0  0  0  0
   -3.5970    9.4767   -4.8796 C   0  0  0  0  0  0  0  0  0  0  0  0
   -5.4859    8.6890   -2.1534 C   0  0  0  0  0  0  0  0  0  0  0  0
   -6.3597   10.1655   -2.1544 Cl  0  0  0  0  0  0  0  0  0  0  0  0
   -6.0176    7.4907   -1.6045 C   0  0  0  0  0  0  0  0  0  0  0  0
   -7.5477    7.4274   -0.8381 Cl  0  0  0  0  0  0  0  0  0  0  0  0
   -6.4255    4.2956   -1.7780 C   0  0  0  0  0  0  0  0  0  0  0  0
   -6.5771    2.9139   -1.5061 C   0  0  0  0  0  0  0  0  0  0  0  0
   -5.6242    2.2311   -0.7241 C   0  0  0  0  0  0  0  0  0  0  0  0
   -5.7453    0.8110   -0.4431 C   0  0  0  0  0  0  0  0  0  0  0  0
   -7.2890    0.1177   -0.0121 S   0  0  0  0  0  0  0  0  0  0  0  0
   -6.6258   -1.4600    0.2331 C   0  0  0  0  0  0  0  0  0  0  0  0
   -7.4770   -2.6326    0.5732 C   0  0  0  0  0  0  0  0  0  0  0  0
   -7.8979   -3.3779   -0.6963 C   0  0  0  0  0  0  0  0  0  0  0  0
   -5.2876   -1.4411   -0.0130 C   0  0  0  0  0  0  0  0  0  0  0  0
   -4.7870   -0.1686   -0.3979 C   0  0  0  0  0  0  0  0  0  0  0  0
   -3.1470    0.0024   -0.8525 Cl  0  0  0  0  0  0  0  0  0  0  0  0
   -4.2652   -2.8064    0.1525 Cl  0  0  0  0  0  0  0  0  0  0  0  0
   -4.5697    2.9961   -0.2234 C   0  0  0  0  0  0  0  0  0  0  0  0
   -3.3108    2.4459    0.8410 S   0  0  0  0  0  0  0  0  0  0  0  0
   -7.6903    2.3733   -2.2018 C   0  0  0  0  0  0  0  0  0  0  0  0
   -8.3549    3.2827   -2.9639 C   0  0  0  0  0  0  0  0  0  0  0  0
   -7.6653    4.8851   -2.8517 S   0  0  0  0  0  0  0  0  0  0  0  0
   -9.2545    3.0579   -4.0112 N   0  0  0  0  0  0  0  0  0  0  0  0
  -10.5945    3.3675   -3.7478 N   0  0  0  0  0  0  0  0  0  0  0  0
  -11.1775    2.0915   -3.3440 C   0  0  0  0  0  0  0  0  0  0  0  0
  -12.6973    2.0793   -3.2955 C   0  0  0  0  0  0  0  0  0  0  0  0
  -13.2115    3.2354   -2.4397 C   0  0  0  0  0  0  0  0  0  0  0  0
  -13.3187    2.0815   -4.6933 C   0  0  0  0  0  0  0  0  0  0  0  0
  -12.7603    0.9589   -5.5911 C   0  0  0  0  0  0  0  0  0  0  0  0
  -13.2997    1.2208   -6.9160 N   0  0  0  0  0  0  0  0  0  0  0  0
  -13.1389    2.9136   -7.1605 S   0  0  0  0  0  0  0  0  0  0  0  0
  -13.0422    3.3022   -5.4345 N   0  0  0  0  0  0  0  0  0  0  0  0
  -11.2324    1.0052   -5.6920 C   0  0  0  0  0  0  0  0  0  0  0  0
  -10.7258   -0.1903   -6.4928 C   0  0  0  0  0  0  0  0  0  0  0  0
  -10.5251    1.0899   -4.3275 C   0  0  0  0  0  0  0  0  0  0  0  0
   -9.2294    1.7163   -4.5227 N   0  0  0  0  0  0  0  0  0  0  0  0
   -8.0534    1.0792   -4.7262 C   0  0  0  0  0  0  0  0  0  0  0  0
   -6.8697    1.7248   -4.8410 C   0  0  0  0  0  0  0  0  0  0  0  0
   -5.5985    1.1184   -4.6740 C   0  0  0  0  0  0  0  0  0  0  0  0
   -4.4403    1.7827   -4.3788 C   0  0  0  0  0  0  0  0  0  0  0  0
   -3.3542    0.9358   -4.0636 C   0  0  0  0  0  0  0  0  0  0  0  0
   -2.0645    1.2998   -3.6344 C   0  0  0  0  0  0  0  0  0  0  0  0
   -1.6649    2.6910   -3.5167 C   0  0  0  0  0  0  0  0  0  0  0  0
   -0.9711    3.2874   -2.0356 S   0  0  0  0  0  0  0  0  0  0  0  0
   -0.7633    4.8807   -2.6773 C   0  0  0  0  0  0  0  0  0  0  0  0
   -0.1211    5.9548   -1.8723 C   0  0  0  0  0  0  0  0  0  0  0  0
    1.2223    5.5001   -1.3054 C   0  0  0  0  0  0  0  0  0  0  0  0
   -1.2238    4.9331   -3.9579 C   0  0  0  0  0  0  0  0  0  0  0  0
   -1.1869    6.3447   -4.9276 Cl  0  0  0  0  0  0  0  0  0  0  0  0
   -1.7379    3.6983   -4.4373 C   0  0  0  0  0  0  0  0  0  0  0  0
   -2.2926    3.4980   -6.0493 Cl  0  0  0  0  0  0  0  0  0  0  0  0
   -1.2167    0.2695   -3.2438 C   0  0  0  0  0  0  0  0  0  0  0  0
   -1.5919   -1.0937   -3.2973 C   0  0  0  0  0  0  0  0  0  0  0  0
   -2.8636   -1.4641   -3.7808 C   0  0  0  0  0  0  0  0  0  0  0  0
   -3.2528   -2.8614   -3.8167 C   0  0  0  0  0  0  0  0  0  0  0  0
   -4.7459   -3.3992   -3.1087 S   0  0  0  0  0  0  0  0  0  0  0  0
   -4.3908   -5.0635   -3.4165 C   0  0  0  0  0  0  0  0  0  0  0  0
   -5.2905   -6.1466   -2.9329 C   0  0  0  0  0  0  0  0  0  0  0  0
   -4.9624   -6.5093   -1.4820 C   0  0  0  0  0  0  0  0  0  0  0  0
   -3.1893   -5.1794   -4.0495 C   0  0  0  0  0  0  0  0  0  0  0  0
   -2.5474   -3.9357   -4.2884 C   0  0  0  0  0  0  0  0  0  0  0  0
   -1.0728   -3.8217   -5.1653 Cl  0  0  0  0  0  0  0  0  0  0  0  0
   -2.4937   -6.6773   -4.5138 Cl  0  0  0  0  0  0  0  0  0  0  0  0
   -3.7221   -0.4332   -4.1210 C   0  0  0  0  0  0  0  0  0  0  0  0
   -5.3876   -0.6218   -4.5968 S   0  0  0  0  0  0  0  0  0  0  0  0
   -0.6126   -1.9324   -2.7240 C   0  0  0  0  0  0  0  0  0  0  0  0
    0.4984   -1.2646   -2.2937 C   0  0  0  0  0  0  0  0  0  0  0  0
    0.3790    0.4589   -2.5687 S   0  0  0  0  0  0  0  0  0  0  0  0
    1.6215   -1.8645   -1.6535 C   0  0  0  0  0  0  0  0  0  0  0  0
    1.8040   -3.2067   -1.4812 C   0  0  0  0  0  0  0  0  0  0  0  0
    2.9595   -3.5314   -0.7385 C   0  0  0  0  0  0  0  0  0  0  0  0
    3.4002   -4.8124   -0.3595 C   0  0  0  0  0  0  0  0  0  0  0  0
    2.5875   -5.9770   -0.6680 C   0  0  0  0  0  0  0  0  0  0  0  0
    3.2326   -7.3465   -1.5223 S   0  0  0  0  0  0  0  0  0  0  0  0
    1.6974   -8.1437   -1.5636 C   0  0  0  0  0  0  0  0  0  0  0  0
    1.5102   -9.4367   -2.2773 C   0  0  0  0  0  0  0  0  0  0  0  0
    1.1043   -9.1962   -3.7339 C   0  0  0  0  0  0  0  0  0  0  0  0
    0.7518   -7.3840   -0.9418 C   0  0  0  0  0  0  0  0  0  0  0  0
   -0.8957   -7.8385   -0.7957 Cl  0  0  0  0  0  0  0  0  0  0  0  0
    1.2526   -6.1605   -0.4255 C   0  0  0  0  0  0  0  0  0  0  0  0
    0.2662   -5.0778    0.4729 Cl  0  0  0  0  0  0  0  0  0  0  0  0
    4.6071   -4.8832    0.3200 C   0  0  0  0  0  0  0  0  0  0  0  0
    5.3649   -3.7325    0.6510 C   0  0  0  0  0  0  0  0  0  0  0  0
    4.9180   -2.4516    0.2768 C   0  0  0  0  0  0  0  0  0  0  0  0
    5.7133   -1.2740    0.5807 C   0  0  0  0  0  0  0  0  0  0  0  0
    5.0587    0.0953    1.4308 S   0  0  0  0  0  0  0  0  0  0  0  0
    6.5612    0.9482    1.3647 C   0  0  0  0  0  0  0  0  0  0  0  0
    6.7372    2.2866    1.9921 C   0  0  0  0  0  0  0  0  0  0  0  0
    7.4154    2.1650    3.3585 C   0  0  0  0  0  0  0  0  0  0  0  0
    7.5058    0.2012    0.7253 C   0  0  0  0  0  0  0  0  0  0  0  0
    7.0297   -1.0579    0.2770 C   0  0  0  0  0  0  0  0  0  0  0  0
    8.0040   -2.1473   -0.6233 Cl  0  0  0  0  0  0  0  0  0  0  0  0
    9.1201    0.7224    0.4680 Cl  0  0  0  0  0  0  0  0  0  0  0  0
    3.7049   -2.3780   -0.3923 C   0  0  0  0  0  0  0  0  0  0  0  0
    2.9191   -0.9251   -0.9472 S   0  0  0  0  0  0  0  0  0  0  0  0
    6.5051   -4.0598    1.4220 C   0  0  0  0  0  0  0  0  0  0  0  0
    6.6393   -5.3950    1.6604 C   0  0  0  0  0  0  0  0  0  0  0  0
    5.3431   -6.3324    0.9448 S   0  0  0  0  0  0  0  0  0  0  0  0
    7.6665   -6.0257    2.4205 C   0  0  0  0  0  0  0  0  0  0  0  0
    7.7948   -7.3436    2.7406 C   0  0  0  0  0  0  0  0  0  0  0  0
    8.9182   -7.6178    3.5614 C   0  0  0  0  0  0  0  0  0  0  0  0
    9.3406   -8.8545    4.0765 C   0  0  0  0  0  0  0  0  0  0  0  0
    8.5555  -10.0601    3.8748 C   0  0  0  0  0  0  0  0  0  0  0  0
    9.2654  -11.5145    3.2418 S   0  0  0  0  0  0  0  0  0  0  0  0
    7.7673  -12.3754    3.3274 C   0  0  0  0  0  0  0  0  0  0  0  0
    7.6819  -13.8136    2.9533 C   0  0  0  0  0  0  0  0  0  0  0  0
    8.0839  -14.7040    4.1316 C   0  0  0  0  0  0  0  0  0  0  0  0
    6.7872  -11.5733    3.8313 C   0  0  0  0  0  0  0  0  0  0  0  0
    5.1661  -12.0810    4.0754 Cl  0  0  0  0  0  0  0  0  0  0  0  0
    7.2277  -10.2583    4.1378 C   0  0  0  0  0  0  0  0  0  0  0  0
    6.1968   -9.0831    4.8478 Cl  0  0  0  0  0  0  0  0  0  0  0  0
   10.5219   -8.8627    4.8089 C   0  0  0  0  0  0  0  0  0  0  0  0
   11.2787   -7.6958    5.0688 C   0  0  0  0  0  0  0  0  0  0  0  0
   10.8565   -6.4598    4.5554 C   0  0  0  0  0  0  0  0  0  0  0  0
   11.6254   -5.2418    4.7528 C   0  0  0  0  0  0  0  0  0  0  0  0
   10.8845   -3.7953    5.3684 S   0  0  0  0  0  0  0  0  0  0  0  0
   12.3560   -2.8930    5.2405 C   0  0  0  0  0  0  0  0  0  0  0  0
   12.3956   -1.4453    5.5849 C   0  0  0  0  0  0  0  0  0  0  0  0
   11.7051   -0.6096    4.5045 C   0  0  0  0  0  0  0  0  0  0  0  0
   13.3521   -3.6796    4.7442 C   0  0  0  0  0  0  0  0  0  0  0  0
   12.9433   -5.0131    4.4707 C   0  0  0  0  0  0  0  0  0  0  0  0
   13.9958   -6.1756    3.7724 Cl  0  0  0  0  0  0  0  0  0  0  0  0
   14.9568   -3.1375    4.4661 Cl  0  0  0  0  0  0  0  0  0  0  0  0
    9.6732   -6.4503    3.8284 C   0  0  0  0  0  0  0  0  0  0  0  0
    8.9573   -5.0472    3.0906 S   0  0  0  0  0  0  0  0  0  0  0  0
   12.3973   -7.9714    5.9086 C   0  0  0  0  0  0  0  0  0  0  0  0
   12.4892   -9.2733    6.2464 C   0  0  0  0  0  0  0  0  0  0  0  0
   11.2281  -10.2540    5.5823 S   0  0  0  0  0  0  0  0  0  0  0  0
    5.8458    4.7323    5.1005 H   0  0  0  0  0  0  0  0  0  0  0  0
    4.3946    6.6561    4.1206 H   0  0  0  0  0  0  0  0  0  0  0  0
    1.4338   11.7846    2.0523 H   0  0  0  0  0  0  0  0  0  0  0  0
    1.0750   10.8626    0.5791 H   0  0  0  0  0  0  0  0  0  0  0  0
    3.1246   12.2381    0.2856 H   0  0  0  0  0  0  0  0  0  0  0  0
    3.5176   10.5167    0.2052 H   0  0  0  0  0  0  0  0  0  0  0  0
    3.8737   11.4378    1.6702 H   0  0  0  0  0  0  0  0  0  0  0  0
    0.4362   -2.7952    2.9930 H   0  0  0  0  0  0  0  0  0  0  0  0
    1.1489   -2.2304    1.4757 H   0  0  0  0  0  0  0  0  0  0  0  0
    3.4429   -2.6003    2.4845 H   0  0  0  0  0  0  0  0  0  0  0  0
    2.4914   -4.0845    2.3652 H   0  0  0  0  0  0  0  0  0  0  0  0
    2.6694   -3.2704    3.9205 H   0  0  0  0  0  0  0  0  0  0  0  0
   -0.7850    2.1919    2.0113 H   0  0  0  0  0  0  0  0  0  0  0  0
   -2.9901    5.9636    0.0352 H   0  0  0  0  0  0  0  0  0  0  0  0
   -2.3432    9.3915   -3.1303 H   0  0  0  0  0  0  0  0  0  0  0  0
   -3.6786   10.5564   -3.0124 H   0  0  0  0  0  0  0  0  0  0  0  0
   -2.9946   10.2301   -5.3798 H   0  0  0  0  0  0  0  0  0  0  0  0
   -4.6417    9.6406   -5.1313 H   0  0  0  0  0  0  0  0  0  0  0  0
   -3.3002    8.4959   -5.2426 H   0  0  0  0  0  0  0  0  0  0  0  0
   -6.9040   -3.3052    1.2145 H   0  0  0  0  0  0  0  0  0  0  0  0
   -8.3618   -2.2984    1.1167 H   0  0  0  0  0  0  0  0  0  0  0  0
   -8.4966   -2.7308   -1.3328 H   0  0  0  0  0  0  0  0  0  0  0  0
   -8.4843   -4.2554   -0.4375 H   0  0  0  0  0  0  0  0  0  0  0  0
   -7.0193   -3.6905   -1.2549 H   0  0  0  0  0  0  0  0  0  0  0  0
   -7.9622    1.3353   -2.1556 H   0  0  0  0  0  0  0  0  0  0  0  0
  -11.0519    3.6958   -4.6020 H   0  0  0  0  0  0  0  0  0  0  0  0
  -10.7951    1.8835   -2.3333 H   0  0  0  0  0  0  0  0  0  0  0  0
  -12.9991    1.1331   -2.8300 H   0  0  0  0  0  0  0  0  0  0  0  0
  -12.8394    3.1385   -1.4234 H   0  0  0  0  0  0  0  0  0  0  0  0
  -12.8630    4.1824   -2.8403 H   0  0  0  0  0  0  0  0  0  0  0  0
  -14.2987    3.2336   -2.4114 H   0  0  0  0  0  0  0  0  0  0  0  0
  -14.4056    1.9142   -4.5771 H   0  0  0  0  0  0  0  0  0  0  0  0
  -13.0960   -0.0240   -5.2480 H   0  0  0  0  0  0  0  0  0  0  0  0
  -14.2778    0.9494   -6.9808 H   0  0  0  0  0  0  0  0  0  0  0  0
  -13.7092    4.0364   -5.2228 H   0  0  0  0  0  0  0  0  0  0  0  0
  -10.9828    1.9145   -6.2480 H   0  0  0  0  0  0  0  0  0  0  0  0
  -10.9103   -1.1196   -5.9563 H   0  0  0  0  0  0  0  0  0  0  0  0
  -11.2422   -0.2320   -7.4476 H   0  0  0  0  0  0  0  0  0  0  0  0
   -9.6592   -0.0971   -6.6781 H   0  0  0  0  0  0  0  0  0  0  0  0
  -10.4218    0.0932   -3.8855 H   0  0  0  0  0  0  0  0  0  0  0  0
   -8.1016   -0.0016   -4.7207 H   0  0  0  0  0  0  0  0  0  0  0  0
   -6.8545    2.8021   -4.9128 H   0  0  0  0  0  0  0  0  0  0  0  0
   -4.3901    2.8550   -4.3329 H   0  0  0  0  0  0  0  0  0  0  0  0
    0.0147    6.8289   -2.5107 H   0  0  0  0  0  0  0  0  0  0  0  0
   -0.7790    6.2377   -1.0472 H   0  0  0  0  0  0  0  0  0  0  0  0
    1.0893    4.6198   -0.6804 H   0  0  0  0  0  0  0  0  0  0  0  0
    1.6603    6.2926   -0.7044 H   0  0  0  0  0  0  0  0  0  0  0  0
    1.9080    5.2476   -2.1101 H   0  0  0  0  0  0  0  0  0  0  0  0
   -5.1604   -7.0249   -3.5681 H   0  0  0  0  0  0  0  0  0  0  0  0
   -6.3281   -5.8145   -3.0015 H   0  0  0  0  0  0  0  0  0  0  0  0
   -5.6338   -7.2872   -1.1285 H   0  0  0  0  0  0  0  0  0  0  0  0
   -5.0671   -5.6369   -0.8413 H   0  0  0  0  0  0  0  0  0  0  0  0
   -3.9403   -6.8713   -1.4068 H   0  0  0  0  0  0  0  0  0  0  0  0
   -0.7486   -2.9881   -2.5895 H   0  0  0  0  0  0  0  0  0  0  0  0
    1.1424   -3.9441   -1.8927 H   0  0  0  0  0  0  0  0  0  0  0  0
    0.7294  -10.0094   -1.7722 H   0  0  0  0  0  0  0  0  0  0  0  0
    2.4399  -10.0066   -2.2452 H   0  0  0  0  0  0  0  0  0  0  0  0
    0.9620  -10.1452   -4.2438 H   0  0  0  0  0  0  0  0  0  0  0  0
    1.8760   -8.6325   -4.2527 H   0  0  0  0  0  0  0  0  0  0  0  0
    0.1748   -8.6343   -3.7788 H   0  0  0  0  0  0  0  0  0  0  0  0
    7.3566    2.9026    1.3361 H   0  0  0  0  0  0  0  0  0  0  0  0
    5.7633    2.7643    2.1039 H   0  0  0  0  0  0  0  0  0  0  0  0
    6.7932    1.5891    4.0389 H   0  0  0  0  0  0  0  0  0  0  0  0
    8.3776    1.6697    3.2581 H   0  0  0  0  0  0  0  0  0  0  0  0
    7.5760    3.1525    3.7817 H   0  0  0  0  0  0  0  0  0  0  0  0
    7.1948   -3.3334    1.8117 H   0  0  0  0  0  0  0  0  0  0  0  0
    7.1082   -8.0928    2.3908 H   0  0  0  0  0  0  0  0  0  0  0  0
    8.3436  -14.0090    2.1079 H   0  0  0  0  0  0  0  0  0  0  0  0
    6.6561  -14.0393    2.6564 H   0  0  0  0  0  0  0  0  0  0  0  0
    8.0183  -15.7510    3.8485 H   0  0  0  0  0  0  0  0  0  0  0  0
    9.1047  -14.4863    4.4367 H   0  0  0  0  0  0  0  0  0  0  0  0
    7.4238  -14.5292    4.9773 H   0  0  0  0  0  0  0  0  0  0  0  0
   11.8931   -1.2844    6.5409 H   0  0  0  0  0  0  0  0  0  0  0  0
   13.4380   -1.1376    5.6821 H   0  0  0  0  0  0  0  0  0  0  0  0
   10.6645   -0.9095    4.4048 H   0  0  0  0  0  0  0  0  0  0  0  0
   11.7428    0.4444    4.7663 H   0  0  0  0  0  0  0  0  0  0  0  0
   12.1991   -0.7485    3.5462 H   0  0  0  0  0  0  0  0  0  0  0  0
   13.0835   -7.2176    6.2473 H   0  0  0  0  0  0  0  0  0  0  0  0
   13.2308   -9.7428    6.8625 H   0  0  0  0  0  0  0  0  0  0  0  0
  1  2  2  0  0  0  0
  2  3  1  0  0  0  0
  3  4  2  0  0  0  0
  4  5  1  0  0  0  0
  5  6  1  0  0  0  0
  6  7  1  0  0  0  0
  7  8  1  0  0  0  0
  8  9  1  0  0  0  0
  7 10  2  0  0  0  0
 10 11  1  0  0  0  0
 10 12  1  0  0  0  0
 12 13  1  0  0  0  0
  4 14  1  0  0  0  0
 14 15  2  0  0  0  0
 15 16  1  0  0  0  0
 16 17  1  0  0  0  0
 17 18  1  0  0  0  0
 18 19  1  0  0  0  0
 19 20  1  0  0  0  0
 20 21  1  0  0  0  0
 19 22  2  0  0  0  0
 22 23  1  0  0  0  0
 23 24  1  0  0  0  0
 22 25  1  0  0  0  0
 16 26  2  0  0  0  0
 26 27  1  0  0  0  0
 15 28  1  0  0  0  0
 28 29  2  0  0  0  0
 29 30  1  0  0  0  0
 29 31  1  0  0  0  0
 31 32  2  0  0  0  0
 32 33  1  0  0  0  0
 33 34  2  0  0  0  0
 34 35  1  0  0  0  0
 35 36  1  0  0  0  0
 36 37  1  0  0  0  0
 37 38  1  0  0  0  0
 38 39  1  0  0  0  0
 37 40  2  0  0  0  0
 40 41  1  0  0  0  0
 40 42  1  0  0  0  0
 42 43  1  0  0  0  0
 34 44  1  0  0  0  0
 44 45  2  0  0  0  0
 45 46  1  0  0  0  0
 46 47  1  0  0  0  0
 47 48  1  0  0  0  0
 48 49  1  0  0  0  0
 49 50  1  0  0  0  0
 50 51  1  0  0  0  0
 49 52  2  0  0  0  0
 52 53  1  0  0  0  0
 53 54  1  0  0  0  0
 52 55  1  0  0  0  0
 46 56  2  0  0  0  0
 56 57  1  0  0  0  0
 45 58  1  0  0  0  0
 58 59  2  0  0  0  0
 59 60  1  0  0  0  0
 59 61  1  0  0  0  0
 61 62  1  0  0  0  0
 62 63  1  0  0  0  0
 63 64  1  0  0  0  0
 64 65  1  0  0  0  0
 64 66  1  0  0  0  0
 66 67  1  0  0  0  0
 67 68  1  0  0  0  0
 68 69  1  0  0  0  0
 69 70  1  0  0  0  0
 67 71  1  0  0  0  0
 71 72  1  0  0  0  0
 71 73  1  0  0  0  0
 73 74  1  0  0  0  0
 74 75  1  0  0  0  0
 75 76  2  0  0  0  0
 76 77  1  0  0  0  0
 77 78  2  0  0  0  0
 78 79  1  0  0  0  0
 79 80  2  0  0  0  0
 80 81  1  0  0  0  0
 81 82  1  0  0  0  0
 82 83  1  0  0  0  0
 83 84  1  0  0  0  0
 84 85  1  0  0  0  0
 83 86  2  0  0  0  0
 86 87  1  0  0  0  0
 86 88  1  0  0  0  0
 88 89  1  0  0  0  0
 80 90  1  0  0  0  0
 90 91  2  0  0  0  0
 91 92  1  0  0  0  0
 92 93  1  0  0  0  0
 93 94  1  0  0  0  0
 94 95  1  0  0  0  0
 95 96  1  0  0  0  0
 96 97  1  0  0  0  0
 95 98  2  0  0  0  0
 98 99  1  0  0  0  0
 99100  1  0  0  0  0
 98101  1  0  0  0  0
 92102  2  0  0  0  0
102103  1  0  0  0  0
 91104  1  0  0  0  0
104105  2  0  0  0  0
105106  1  0  0  0  0
105107  1  0  0  0  0
107108  2  0  0  0  0
108109  1  0  0  0  0
109110  2  0  0  0  0
110111  1  0  0  0  0
111112  1  0  0  0  0
112113  1  0  0  0  0
113114  1  0  0  0  0
114115  1  0  0  0  0
113116  2  0  0  0  0
116117  1  0  0  0  0
116118  1  0  0  0  0
118119  1  0  0  0  0
110120  1  0  0  0  0
120121  2  0  0  0  0
121122  1  0  0  0  0
122123  1  0  0  0  0
123124  1  0  0  0  0
124125  1  0  0  0  0
125126  1  0  0  0  0
126127  1  0  0  0  0
125128  2  0  0  0  0
128129  1  0  0  0  0
129130  1  0  0  0  0
128131  1  0  0  0  0
122132  2  0  0  0  0
132133  1  0  0  0  0
121134  1  0  0  0  0
134135  2  0  0  0  0
135136  1  0  0  0  0
135137  1  0  0  0  0
137138  2  0  0  0  0
138139  1  0  0  0  0
139140  2  0  0  0  0
140141  1  0  0  0  0
141142  1  0  0  0  0
142143  1  0  0  0  0
143144  1  0  0  0  0
144145  1  0  0  0  0
143146  2  0  0  0  0
146147  1  0  0  0  0
146148  1  0  0  0  0
148149  1  0  0  0  0
140150  1  0  0  0  0
150151  2  0  0  0  0
151152  1  0  0  0  0
152153  1  0  0  0  0
153154  1  0  0  0  0
154155  1  0  0  0  0
155156  1  0  0  0  0
156157  1  0  0  0  0
155158  2  0  0  0  0
158159  1  0  0  0  0
159160  1  0  0  0  0
158161  1  0  0  0  0
152162  2  0  0  0  0
162163  1  0  0  0  0
151164  1  0  0  0  0
164165  2  0  0  0  0
165166  1  0  0  0  0
 27  1  1  0  0  0  0
 57 31  1  0  0  0  0
 74 61  1  0  0  0  0
103 77  1  0  0  0  0
133107  1  0  0  0  0
163137  1  0  0  0  0
 26  3  1  0  0  0  0
 56 33  1  0  0  0  0
 73 63  1  0  0  0  0
102 79  1  0  0  0  0
132109  1  0  0  0  0
162139  1  0  0  0  0
 12  5  2  0  0  0  0
 30 14  1  0  0  0  0
 42 35  2  0  0  0  0
 60 44  1  0  0  0  0
 70 66  1  0  0  0  0
 88 81  2  0  0  0  0
106 90  1  0  0  0  0
118111  2  0  0  0  0
136120  1  0  0  0  0
148141  2  0  0  0  0
166150  1  0  0  0  0
 23 17  2  0  0  0  0
 53 47  2  0  0  0  0
 99 93  2  0  0  0  0
129123  2  0  0  0  0
159153  2  0  0  0  0
  1167  1  0  0  0  0
  2168  1  0  0  0  0
  8169  1  0  0  0  0
  8170  1  0  0  0  0
  9171  1  0  0  0  0
  9172  1  0  0  0  0
  9173  1  0  0  0  0
 20174  1  0  0  0  0
 20175  1  0  0  0  0
 21176  1  0  0  0  0
 21177  1  0  0  0  0
 21178  1  0  0  0  0
 28179  1  0  0  0  0
 32180  1  0  0  0  0
 38181  1  0  0  0  0
 38182  1  0  0  0  0
 39183  1  0  0  0  0
 39184  1  0  0  0  0
 39185  1  0  0  0  0
 50186  1  0  0  0  0
 50187  1  0  0  0  0
 51188  1  0  0  0  0
 51189  1  0  0  0  0
 51190  1  0  0  0  0
 58191  1  0  0  0  0
 62192  1  0  0  0  0
 63193  1  0  0  0  0
 64194  1  0  0  0  0
 65195  1  0  0  0  0
 65196  1  0  0  0  0
 65197  1  0  0  0  0
 66198  1  0  0  0  0
 67199  1  0  0  0  0
 68200  1  0  0  0  0
 70201  1  0  0  0  0
 71202  1  0  0  0  0
 72203  1  0  0  0  0
 72204  1  0  0  0  0
 72205  1  0  0  0  0
 73206  1  0  0  0  0
 75207  1  0  0  0  0
 76208  1  0  0  0  0
 78209  1  0  0  0  0
 84210  1  0  0  0  0
 84211  1  0  0  0  0
 85212  1  0  0  0  0
 85213  1  0  0  0  0
 85214  1  0  0  0  0
 96215  1  0  0  0  0
 96216  1  0  0  0  0
 97217  1  0  0  0  0
 97218  1  0  0  0  0
 97219  1  0  0  0  0
104220  1  0  0  0  0
108221  1  0  0  0  0
114222  1  0  0  0  0
114223  1  0  0  0  0
115224  1  0  0  0  0
115225  1  0  0  0  0
115226  1  0  0  0  0
126227  1  0  0  0  0
126228  1  0  0  0  0
127229  1  0  0  0  0
127230  1  0  0  0  0
127231  1  0  0  0  0
134232  1  0  0  0  0
138233  1  0  0  0  0
144234  1  0  0  0  0
144235  1  0  0  0  0
145236  1  0  0  0  0
145237  1  0  0  0  0
145238  1  0  0  0  0
156239  1  0  0  0  0
156240  1  0  0  0  0
157241  1  0  0  0  0
157242  1  0  0  0  0
157243  1  0  0  0  0
164244  1  0  0  0  0
165245  1  0  0  0  0
M  END
