
  xtb     03012223103D
 energy: -361.643737230021 gnorm: 0.000346183886 xtb: 6.4.1 (unknown)
218239  0     0  0            999 V2000
    6.6333   -7.9694    2.5655 C   0  0  0  0  0  0  0  0  0  0  0  0
    6.5006   -6.9566    3.4456 C   0  0  0  0  0  0  0  0  0  0  0  0
    5.4079   -6.0950    3.1381 C   0  0  0  0  0  0  0  0  0  0  0  0
    4.9434   -4.9725    3.8459 C   0  0  0  0  0  0  0  0  0  0  0  0
    5.5556   -4.5580    5.1008 C   0  0  0  0  0  0  0  0  0  0  0  0
    7.2341   -4.1213    5.2055 S   0  0  0  0  0  0  0  0  0  0  0  0
    7.1234   -3.7835    6.9000 C   0  0  0  0  0  0  0  0  0  0  0  0
    8.2927   -3.2755    7.6693 C   0  0  0  0  0  0  0  0  0  0  0  0
    8.3488   -1.7464    7.6320 C   0  0  0  0  0  0  0  0  0  0  0  0
    5.8517   -3.9939    7.3406 C   0  0  0  0  0  0  0  0  0  0  0  0
    5.3547   -3.7684    8.9678 Cl  0  0  0  0  0  0  0  0  0  0  0  0
    4.9623   -4.4360    6.3249 C   0  0  0  0  0  0  0  0  0  0  0  0
    3.3296   -4.8427    6.6428 Cl  0  0  0  0  0  0  0  0  0  0  0  0
    3.8626   -4.2914    3.3152 C   0  0  0  0  0  0  0  0  0  0  0  0
    3.2003   -4.6802    2.1217 C   0  0  0  0  0  0  0  0  0  0  0  0
    3.5990   -5.8596    1.4771 C   0  0  0  0  0  0  0  0  0  0  0  0
    2.8446   -6.4764    0.3924 C   0  0  0  0  0  0  0  0  0  0  0  0
    2.6872   -5.8282   -1.2109 S   0  0  0  0  0  0  0  0  0  0  0  0
    1.8585   -7.2380   -1.7898 C   0  0  0  0  0  0  0  0  0  0  0  0
    1.4714   -7.4103   -3.2204 C   0  0  0  0  0  0  0  0  0  0  0  0
   -0.0448   -7.4028   -3.4192 C   0  0  0  0  0  0  0  0  0  0  0  0
    1.6820   -8.1266   -0.7725 C   0  0  0  0  0  0  0  0  0  0  0  0
    2.2374   -7.6983    0.4603 C   0  0  0  0  0  0  0  0  0  0  0  0
    2.1320   -8.6293    1.8967 Cl  0  0  0  0  0  0  0  0  0  0  0  0
    0.9074   -9.6493   -0.9501 Cl  0  0  0  0  0  0  0  0  0  0  0  0
    4.7111   -6.5230    1.9888 C   0  0  0  0  0  0  0  0  0  0  0  0
    5.4354   -7.9570    1.3150 S   0  0  0  0  0  0  0  0  0  0  0  0
    2.1274   -3.8208    1.7881 C   0  0  0  0  0  0  0  0  0  0  0  0
    1.9419   -2.8297    2.7095 C   0  0  0  0  0  0  0  0  0  0  0  0
    3.1136   -2.8776    4.0140 S   0  0  0  0  0  0  0  0  0  0  0  0
    1.0521   -1.8152    2.7749 N   0  0  0  0  0  0  0  0  0  0  0  0
    0.7633   -1.2862    4.0404 N   0  0  0  0  0  0  0  0  0  0  0  0
   -0.0912   -0.1565    3.7327 C   0  0  0  0  0  0  0  0  0  0  0  0
    0.7549    1.1135    3.5757 C   0  0  0  0  0  0  0  0  0  0  0  0
    1.9517    0.9417    2.6441 C   0  0  0  0  0  0  0  0  0  0  0  0
   -0.1996    2.2562    3.2015 C   0  0  0  0  0  0  0  0  0  0  0  0
   -1.2596    1.8993    2.1240 C   0  0  0  0  0  0  0  0  0  0  0  0
   -1.1853    2.9567    1.1211 N   0  0  0  0  0  0  0  0  0  0  0  0
   -0.6522    4.3799    1.9118 S   0  0  0  0  0  0  0  0  0  0  0  0
    0.5318    3.3968    2.6711 N   0  0  0  0  0  0  0  0  0  0  0  0
   -1.0320    0.5576    1.4175 C   0  0  0  0  0  0  0  0  0  0  0  0
   -2.2158    0.2529    0.5012 C   0  0  0  0  0  0  0  0  0  0  0  0
   -0.8446   -0.5771    2.4371 C   0  0  0  0  0  0  0  0  0  0  0  0
   -0.0406   -1.6688    1.8779 N   0  0  0  0  0  0  0  0  0  0  0  0
   -0.6883   -2.8973    1.5895 C   0  0  0  0  0  0  0  0  0  0  0  0
   -0.9707   -3.2091    0.3183 C   0  0  0  0  0  0  0  0  0  0  0  0
   -1.2802   -4.4545   -0.1411 N   0  0  0  0  0  0  0  0  0  0  0  0
   -1.5308   -5.4888    0.7625 N   0  0  0  0  0  0  0  0  0  0  0  0
   -1.9466   -6.5746   -0.1079 C   0  0  0  0  0  0  0  0  0  0  0  0
   -2.6033   -7.7429    0.6098 C   0  0  0  0  0  0  0  0  0  0  0  0
   -1.6931   -8.2754    1.7142 C   0  0  0  0  0  0  0  0  0  0  0  0
   -3.9945   -7.3833    1.1384 C   0  0  0  0  0  0  0  0  0  0  0  0
   -4.9064   -6.7729    0.0542 C   0  0  0  0  0  0  0  0  0  0  0  0
   -6.0860   -6.2988    0.7624 N   0  0  0  0  0  0  0  0  0  0  0  0
   -5.5005   -5.5141    2.1700 S   0  0  0  0  0  0  0  0  0  0  0  0
   -3.9539   -6.3762    2.1902 N   0  0  0  0  0  0  0  0  0  0  0  0
   -4.2603   -5.5734   -0.6442 C   0  0  0  0  0  0  0  0  0  0  0  0
   -5.1471   -5.0840   -1.7847 C   0  0  0  0  0  0  0  0  0  0  0  0
   -2.8388   -5.8553   -1.1533 C   0  0  0  0  0  0  0  0  0  0  0  0
   -2.1545   -4.5815   -1.3019 N   0  0  0  0  0  0  0  0  0  0  0  0
   -1.5684   -4.1847   -2.4920 C   0  0  0  0  0  0  0  0  0  0  0  0
   -2.0334   -4.4172   -3.7208 C   0  0  0  0  0  0  0  0  0  0  0  0
   -1.5653   -3.7520   -4.8809 N   0  0  0  0  0  0  0  0  0  0  0  0
   -1.3119   -4.6409   -5.9653 N   0  0  0  0  0  0  0  0  0  0  0  0
    0.1436   -4.7572   -6.1261 C   0  0  0  0  0  0  0  0  0  0  0  0
    0.6384   -4.3005   -7.5023 C   0  0  0  0  0  0  0  0  0  0  0  0
    0.1901   -2.8902   -7.8922 C   0  0  0  0  0  0  0  0  0  0  0  0
    2.1671   -4.5091   -7.5404 C   0  0  0  0  0  0  0  0  0  0  0  0
    2.9083   -4.0725   -6.2360 C   0  0  0  0  0  0  0  0  0  0  0  0
    4.1028   -3.4006   -6.7203 N   0  0  0  0  0  0  0  0  0  0  0  0
    3.5735   -2.4465   -8.0765 S   0  0  0  0  0  0  0  0  0  0  0  0
    2.7493   -3.8064   -8.6811 N   0  0  0  0  0  0  0  0  0  0  0  0
    2.0608   -3.2109   -5.2818 C   0  0  0  0  0  0  0  0  0  0  0  0
    2.8300   -2.9684   -3.9788 C   0  0  0  0  0  0  0  0  0  0  0  0
    0.7320   -3.9000   -4.9765 C   0  0  0  0  0  0  0  0  0  0  0  0
   -0.3872   -3.0116   -4.7188 N   0  0  0  0  0  0  0  0  0  0  0  0
   -0.3990   -1.7644   -4.2046 C   0  0  0  0  0  0  0  0  0  0  0  0
   -1.5101   -1.0589   -3.9040 C   0  0  0  0  0  0  0  0  0  0  0  0
   -1.4582    0.2539   -3.3590 C   0  0  0  0  0  0  0  0  0  0  0  0
   -2.5023    1.0977   -3.1087 C   0  0  0  0  0  0  0  0  0  0  0  0
   -2.1138    2.3434   -2.5559 C   0  0  0  0  0  0  0  0  0  0  0  0
   -2.9255    3.4139   -2.1466 C   0  0  0  0  0  0  0  0  0  0  0  0
   -4.3777    3.3301   -2.1909 C   0  0  0  0  0  0  0  0  0  0  0  0
   -5.2646    3.1401   -3.6708 S   0  0  0  0  0  0  0  0  0  0  0  0
   -6.7897    3.1538   -2.8501 C   0  0  0  0  0  0  0  0  0  0  0  0
   -8.0721    3.0757   -3.6028 C   0  0  0  0  0  0  0  0  0  0  0  0
   -8.5217    4.4647   -4.0623 C   0  0  0  0  0  0  0  0  0  0  0  0
   -6.6053    3.3030   -1.5084 C   0  0  0  0  0  0  0  0  0  0  0  0
   -7.8860    3.3586   -0.3642 Cl  0  0  0  0  0  0  0  0  0  0  0  0
   -5.2394    3.3957   -1.1340 C   0  0  0  0  0  0  0  0  0  0  0  0
   -4.7311    3.5068    0.4989 Cl  0  0  0  0  0  0  0  0  0  0  0  0
   -2.2942    4.5363   -1.6282 C   0  0  0  0  0  0  0  0  0  0  0  0
   -0.8924    4.6298   -1.4689 C   0  0  0  0  0  0  0  0  0  0  0  0
   -0.0843    3.5383   -1.8215 C   0  0  0  0  0  0  0  0  0  0  0  0
    1.3451    3.5354   -1.5607 C   0  0  0  0  0  0  0  0  0  0  0  0
    2.0437    2.2803   -0.5883 S   0  0  0  0  0  0  0  0  0  0  0  0
    3.6319    2.9522   -0.7199 C   0  0  0  0  0  0  0  0  0  0  0  0
    4.8024    2.2795   -0.0909 C   0  0  0  0  0  0  0  0  0  0  0  0
    5.1031    0.9439   -0.7728 C   0  0  0  0  0  0  0  0  0  0  0  0
    3.6047    4.0818   -1.4816 C   0  0  0  0  0  0  0  0  0  0  0  0
    2.3076    4.4197   -1.9547 C   0  0  0  0  0  0  0  0  0  0  0  0
    2.0171    5.7639   -2.9845 Cl  0  0  0  0  0  0  0  0  0  0  0  0
    4.9908    5.0275   -1.8520 Cl  0  0  0  0  0  0  0  0  0  0  0  0
   -0.7157    2.4288   -2.3613 C   0  0  0  0  0  0  0  0  0  0  0  0
    0.0778    0.9721   -2.8858 S   0  0  0  0  0  0  0  0  0  0  0  0
   -0.5054    5.8579   -0.8718 C   0  0  0  0  0  0  0  0  0  0  0  0
   -1.5613    6.6606   -0.5861 C   0  0  0  0  0  0  0  0  0  0  0  0
   -3.1046    5.9701   -1.0557 S   0  0  0  0  0  0  0  0  0  0  0  0
   -1.5065    7.9159    0.0017 N   0  0  0  0  0  0  0  0  0  0  0  0
   -0.8980    7.9724    1.2968 N   0  0  0  0  0  0  0  0  0  0  0  0
   -2.0387    7.8735    2.2157 C   0  0  0  0  0  0  0  0  0  0  0  0
   -1.7120    8.1518    3.6766 C   0  0  0  0  0  0  0  0  0  0  0  0
   -0.7012    7.1495    4.2291 C   0  0  0  0  0  0  0  0  0  0  0  0
   -1.2281    9.5801    3.8830 C   0  0  0  0  0  0  0  0  0  0  0  0
   -2.1691   10.6402    3.2665 C   0  0  0  0  0  0  0  0  0  0  0  0
   -1.4349   11.8847    3.4279 N   0  0  0  0  0  0  0  0  0  0  0  0
    0.2949   11.5134    3.4551 S   0  0  0  0  0  0  0  0  0  0  0  0
    0.0907    9.8231    3.3368 N   0  0  0  0  0  0  0  0  0  0  0  0
   -2.5258   10.3530    1.7928 C   0  0  0  0  0  0  0  0  0  0  0  0
   -3.6049   11.3354    1.3342 C   0  0  0  0  0  0  0  0  0  0  0  0
   -2.9714    8.8932    1.5464 C   0  0  0  0  0  0  0  0  0  0  0  0
   -2.7978    8.4960    0.1597 N   0  0  0  0  0  0  0  0  0  0  0  0
   -3.3483    9.1519   -0.9192 C   0  0  0  0  0  0  0  0  0  0  0  0
   -2.7930    9.2878   -2.1177 C   0  0  0  0  0  0  0  0  0  0  0  0
    7.3671   -8.7510    2.5615 H   0  0  0  0  0  0  0  0  0  0  0  0
    7.1509   -6.8112    4.2888 H   0  0  0  0  0  0  0  0  0  0  0  0
    9.2111   -3.6847    7.2452 H   0  0  0  0  0  0  0  0  0  0  0  0
    8.2041   -3.6111    8.7045 H   0  0  0  0  0  0  0  0  0  0  0  0
    7.4430   -1.3266    8.0618 H   0  0  0  0  0  0  0  0  0  0  0  0
    9.2030   -1.3900    8.2014 H   0  0  0  0  0  0  0  0  0  0  0  0
    8.4410   -1.3970    6.6065 H   0  0  0  0  0  0  0  0  0  0  0  0
    1.9305   -6.6162   -3.8117 H   0  0  0  0  0  0  0  0  0  0  0  0
    1.8693   -8.3672   -3.5702 H   0  0  0  0  0  0  0  0  0  0  0  0
   -0.4668   -6.4505   -3.1079 H   0  0  0  0  0  0  0  0  0  0  0  0
   -0.5035   -8.1981   -2.8385 H   0  0  0  0  0  0  0  0  0  0  0  0
   -0.2878   -7.5595   -4.4669 H   0  0  0  0  0  0  0  0  0  0  0  0
    1.5099   -3.9567    0.9226 H   0  0  0  0  0  0  0  0  0  0  0  0
    0.2748   -1.9730    4.6248 H   0  0  0  0  0  0  0  0  0  0  0  0
   -0.8012    0.0070    4.5489 H   0  0  0  0  0  0  0  0  0  0  0  0
    1.1601    1.3447    4.5681 H   0  0  0  0  0  0  0  0  0  0  0  0
    1.6737    0.5200    1.6866 H   0  0  0  0  0  0  0  0  0  0  0  0
    2.6747    0.2825    3.1165 H   0  0  0  0  0  0  0  0  0  0  0  0
    2.4118    1.9099    2.4714 H   0  0  0  0  0  0  0  0  0  0  0  0
   -0.7557    2.5302    4.1169 H   0  0  0  0  0  0  0  0  0  0  0  0
   -2.2472    1.8674    2.6143 H   0  0  0  0  0  0  0  0  0  0  0  0
   -2.0685    3.1230    0.6525 H   0  0  0  0  0  0  0  0  0  0  0  0
    1.0320    3.9140    3.3850 H   0  0  0  0  0  0  0  0  0  0  0  0
   -0.1347    0.6462    0.8035 H   0  0  0  0  0  0  0  0  0  0  0  0
   -3.1490    0.2602    1.0629 H   0  0  0  0  0  0  0  0  0  0  0  0
   -2.0975   -0.7241    0.0445 H   0  0  0  0  0  0  0  0  0  0  0  0
   -2.2840    0.9943   -0.2890 H   0  0  0  0  0  0  0  0  0  0  0  0
   -1.8387   -0.9603    2.7109 H   0  0  0  0  0  0  0  0  0  0  0  0
   -0.7684   -3.6316    2.3845 H   0  0  0  0  0  0  0  0  0  0  0  0
   -0.8582   -2.4643   -0.4545 H   0  0  0  0  0  0  0  0  0  0  0  0
   -2.3006   -5.2691    1.4085 H   0  0  0  0  0  0  0  0  0  0  0  0
   -1.0409   -6.9352   -0.6142 H   0  0  0  0  0  0  0  0  0  0  0  0
   -2.7552   -8.5340   -0.1343 H   0  0  0  0  0  0  0  0  0  0  0  0
   -0.7708   -8.6529    1.2836 H   0  0  0  0  0  0  0  0  0  0  0  0
   -2.1788   -9.0868    2.2518 H   0  0  0  0  0  0  0  0  0  0  0  0
   -1.4419   -7.4814    2.4111 H   0  0  0  0  0  0  0  0  0  0  0  0
   -4.4698   -8.3158    1.4946 H   0  0  0  0  0  0  0  0  0  0  0  0
   -5.2024   -7.5293   -0.6784 H   0  0  0  0  0  0  0  0  0  0  0  0
   -6.7014   -7.0670    1.0191 H   0  0  0  0  0  0  0  0  0  0  0  0
   -3.8149   -6.7923    3.1049 H   0  0  0  0  0  0  0  0  0  0  0  0
   -4.1949   -4.7695    0.0959 H   0  0  0  0  0  0  0  0  0  0  0  0
   -5.2373   -5.8487   -2.5541 H   0  0  0  0  0  0  0  0  0  0  0  0
   -4.7186   -4.1892   -2.2274 H   0  0  0  0  0  0  0  0  0  0  0  0
   -6.1388   -4.8538   -1.4059 H   0  0  0  0  0  0  0  0  0  0  0  0
   -2.8663   -6.4020   -2.0987 H   0  0  0  0  0  0  0  0  0  0  0  0
   -0.7278   -3.5221   -2.3444 H   0  0  0  0  0  0  0  0  0  0  0  0
   -2.8787   -5.0472   -3.9379 H   0  0  0  0  0  0  0  0  0  0  0  0
   -1.7241   -4.2348   -6.8019 H   0  0  0  0  0  0  0  0  0  0  0  0
    0.4200   -5.8099   -5.9898 H   0  0  0  0  0  0  0  0  0  0  0  0
    0.2191   -4.9826   -8.2513 H   0  0  0  0  0  0  0  0  0  0  0  0
    0.7672   -2.5621   -8.7516 H   0  0  0  0  0  0  0  0  0  0  0  0
    0.3161   -2.1683   -7.0929 H   0  0  0  0  0  0  0  0  0  0  0  0
   -0.8596   -2.8920   -8.1799 H   0  0  0  0  0  0  0  0  0  0  0  0
    2.3403   -5.5819   -7.6801 H   0  0  0  0  0  0  0  0  0  0  0  0
    3.2424   -4.9658   -5.6924 H   0  0  0  0  0  0  0  0  0  0  0  0
    4.5618   -2.8294   -6.0231 H   0  0  0  0  0  0  0  0  0  0  0  0
    3.3941   -4.4000   -9.1919 H   0  0  0  0  0  0  0  0  0  0  0  0
    1.8803   -2.2506   -5.7738 H   0  0  0  0  0  0  0  0  0  0  0  0
    2.2068   -2.4661   -3.2442 H   0  0  0  0  0  0  0  0  0  0  0  0
    3.7044   -2.3438   -4.1470 H   0  0  0  0  0  0  0  0  0  0  0  0
    3.1598   -3.9122   -3.5467 H   0  0  0  0  0  0  0  0  0  0  0  0
    0.8744   -4.5492   -4.0976 H   0  0  0  0  0  0  0  0  0  0  0  0
    0.5736   -1.3215   -4.0521 H   0  0  0  0  0  0  0  0  0  0  0  0
   -2.4876   -1.4800   -4.0805 H   0  0  0  0  0  0  0  0  0  0  0  0
   -3.5234    0.8381   -3.3218 H   0  0  0  0  0  0  0  0  0  0  0  0
   -8.8349    2.6406   -2.9541 H   0  0  0  0  0  0  0  0  0  0  0  0
   -7.9420    2.4296   -4.4727 H   0  0  0  0  0  0  0  0  0  0  0  0
   -9.4582    4.3930   -4.6087 H   0  0  0  0  0  0  0  0  0  0  0  0
   -7.7705    4.9083   -4.7114 H   0  0  0  0  0  0  0  0  0  0  0  0
   -8.6671    5.1163   -3.2043 H   0  0  0  0  0  0  0  0  0  0  0  0
    4.5957    2.1009    0.9667 H   0  0  0  0  0  0  0  0  0  0  0  0
    5.6667    2.9408   -0.1698 H   0  0  0  0  0  0  0  0  0  0  0  0
    5.9597    0.4679   -0.3032 H   0  0  0  0  0  0  0  0  0  0  0  0
    4.2456    0.2804   -0.6911 H   0  0  0  0  0  0  0  0  0  0  0  0
    5.3244    1.0998   -1.8258 H   0  0  0  0  0  0  0  0  0  0  0  0
    0.5127    6.1247   -0.6606 H   0  0  0  0  0  0  0  0  0  0  0  0
   -0.2632    7.1823    1.3940 H   0  0  0  0  0  0  0  0  0  0  0  0
   -2.5037    6.8736    2.1490 H   0  0  0  0  0  0  0  0  0  0  0  0
   -2.6533    8.0456    4.2286 H   0  0  0  0  0  0  0  0  0  0  0  0
   -1.0227    6.1336    4.0130 H   0  0  0  0  0  0  0  0  0  0  0  0
    0.2743    7.3171    3.7824 H   0  0  0  0  0  0  0  0  0  0  0  0
   -0.6094    7.2720    5.3050 H   0  0  0  0  0  0  0  0  0  0  0  0
   -1.1571    9.7923    4.9578 H   0  0  0  0  0  0  0  0  0  0  0  0
   -3.0894   10.7138    3.8591 H   0  0  0  0  0  0  0  0  0  0  0  0
   -1.6093   12.5371    2.6709 H   0  0  0  0  0  0  0  0  0  0  0  0
    0.1387    9.4966    2.3702 H   0  0  0  0  0  0  0  0  0  0  0  0
   -1.6219   10.5150    1.1927 H   0  0  0  0  0  0  0  0  0  0  0  0
   -4.5699   11.0608    1.7574 H   0  0  0  0  0  0  0  0  0  0  0  0
   -3.3748   12.3472    1.6626 H   0  0  0  0  0  0  0  0  0  0  0  0
   -3.6846   11.3482    0.2513 H   0  0  0  0  0  0  0  0  0  0  0  0
   -4.0154    8.7553    1.8430 H   0  0  0  0  0  0  0  0  0  0  0  0
   -4.3642    9.4667   -0.7256 H   0  0  0  0  0  0  0  0  0  0  0  0
   -3.3410    9.7289   -2.9284 H   0  0  0  0  0  0  0  0  0  0  0  0
   -1.7907    8.9569   -2.3214 H   0  0  0  0  0  0  0  0  0  0  0  0
  1  2  2  0  0  0  0
  2  3  1  0  0  0  0
  3  4  2  0  0  0  0
  4  5  1  0  0  0  0
  5  6  1  0  0  0  0
  6  7  1  0  0  0  0
  7  8  1  0  0  0  0
  8  9  1  0  0  0  0
  7 10  2  0  0  0  0
 10 11  1  0  0  0  0
 10 12  1  0  0  0  0
 12 13  1  0  0  0  0
  4 14  1  0  0  0  0
 14 15  2  0  0  0  0
 15 16  1  0  0  0  0
 16 17  1  0  0  0  0
 17 18  1  0  0  0  0
 18 19  1  0  0  0  0
 19 20  1  0  0  0  0
 20 21  1  0  0  0  0
 19 22  2  0  0  0  0
 22 23  1  0  0  0  0
 23 24  1  0  0  0  0
 22 25  1  0  0  0  0
 16 26  2  0  0  0  0
 26 27  1  0  0  0  0
 15 28  1  0  0  0  0
 28 29  2  0  0  0  0
 29 30  1  0  0  0  0
 29 31  1  0  0  0  0
 31 32  1  0  0  0  0
 32 33  1  0  0  0  0
 33 34  1  0  0  0  0
 34 35  1  0  0  0  0
 34 36  1  0  0  0  0
 36 37  1  0  0  0  0
 37 38  1  0  0  0  0
 38 39  1  0  0  0  0
 39 40  1  0  0  0  0
 37 41  1  0  0  0  0
 41 42  1  0  0  0  0
 41 43  1  0  0  0  0
 43 44  1  0  0  0  0
 44 45  1  0  0  0  0
 45 46  2  0  0  0  0
 46 47  1  0  0  0  0
 47 48  1  0  0  0  0
 48 49  1  0  0  0  0
 49 50  1  0  0  0  0
 50 51  1  0  0  0  0
 50 52  1  0  0  0  0
 52 53  1  0  0  0  0
 53 54  1  0  0  0  0
 54 55  1  0  0  0  0
 55 56  1  0  0  0  0
 53 57  1  0  0  0  0
 57 58  1  0  0  0  0
 57 59  1  0  0  0  0
 59 60  1  0  0  0  0
 60 61  1  0  0  0  0
 61 62  2  0  0  0  0
 62 63  1  0  0  0  0
 63 64  1  0  0  0  0
 64 65  1  0  0  0  0
 65 66  1  0  0  0  0
 66 67  1  0  0  0  0
 66 68  1  0  0  0  0
 68 69  1  0  0  0  0
 69 70  1  0  0  0  0
 70 71  1  0  0  0  0
 71 72  1  0  0  0  0
 69 73  1  0  0  0  0
 73 74  1  0  0  0  0
 73 75  1  0  0  0  0
 75 76  1  0  0  0  0
 76 77  1  0  0  0  0
 77 78  2  0  0  0  0
 78 79  1  0  0  0  0
 79 80  2  0  0  0  0
 80 81  1  0  0  0  0
 81 82  2  0  0  0  0
 82 83  1  0  0  0  0
 83 84  1  0  0  0  0
 84 85  1  0  0  0  0
 85 86  1  0  0  0  0
 86 87  1  0  0  0  0
 85 88  2  0  0  0  0
 88 89  1  0  0  0  0
 88 90  1  0  0  0  0
 90 91  1  0  0  0  0
 82 92  1  0  0  0  0
 92 93  2  0  0  0  0
 93 94  1  0  0  0  0
 94 95  1  0  0  0  0
 95 96  1  0  0  0  0
 96 97  1  0  0  0  0
 97 98  1  0  0  0  0
 98 99  1  0  0  0  0
 97100  2  0  0  0  0
100101  1  0  0  0  0
101102  1  0  0  0  0
100103  1  0  0  0  0
 94104  2  0  0  0  0
104105  1  0  0  0  0
 93106  1  0  0  0  0
106107  2  0  0  0  0
107108  1  0  0  0  0
107109  1  0  0  0  0
109110  1  0  0  0  0
110111  1  0  0  0  0
111112  1  0  0  0  0
112113  1  0  0  0  0
112114  1  0  0  0  0
114115  1  0  0  0  0
115116  1  0  0  0  0
116117  1  0  0  0  0
117118  1  0  0  0  0
115119  1  0  0  0  0
119120  1  0  0  0  0
119121  1  0  0  0  0
121122  1  0  0  0  0
122123  1  0  0  0  0
123124  2  0  0  0  0
 27  1  1  0  0  0  0
 44 31  1  0  0  0  0
 60 47  1  0  0  0  0
 76 63  1  0  0  0  0
105 79  1  0  0  0  0
122109  1  0  0  0  0
 26  3  1  0  0  0  0
 43 33  1  0  0  0  0
 59 49  1  0  0  0  0
 75 65  1  0  0  0  0
104 81  1  0  0  0  0
121111  1  0  0  0  0
 12  5  2  0  0  0  0
 30 14  1  0  0  0  0
 40 36  1  0  0  0  0
 56 52  1  0  0  0  0
 72 68  1  0  0  0  0
 90 83  2  0  0  0  0
108 92  1  0  0  0  0
118114  1  0  0  0  0
 23 17  2  0  0  0  0
101 95  2  0  0  0  0
  1125  1  0  0  0  0
  2126  1  0  0  0  0
  8127  1  0  0  0  0
  8128  1  0  0  0  0
  9129  1  0  0  0  0
  9130  1  0  0  0  0
  9131  1  0  0  0  0
 20132  1  0  0  0  0
 20133  1  0  0  0  0
 21134  1  0  0  0  0
 21135  1  0  0  0  0
 21136  1  0  0  0  0
 28137  1  0  0  0  0
 32138  1  0  0  0  0
 33139  1  0  0  0  0
 34140  1  0  0  0  0
 35141  1  0  0  0  0
 35142  1  0  0  0  0
 35143  1  0  0  0  0
 36144  1  0  0  0  0
 37145  1  0  0  0  0
 38146  1  0  0  0  0
 40147  1  0  0  0  0
 41148  1  0  0  0  0
 42149  1  0  0  0  0
 42150  1  0  0  0  0
 42151  1  0  0  0  0
 43152  1  0  0  0  0
 45153  1  0  0  0  0
 46154  1  0  0  0  0
 48155  1  0  0  0  0
 49156  1  0  0  0  0
 50157  1  0  0  0  0
 51158  1  0  0  0  0
 51159  1  0  0  0  0
 51160  1  0  0  0  0
 52161  1  0  0  0  0
 53162  1  0  0  0  0
 54163  1  0  0  0  0
 56164  1  0  0  0  0
 57165  1  0  0  0  0
 58166  1  0  0  0  0
 58167  1  0  0  0  0
 58168  1  0  0  0  0
 59169  1  0  0  0  0
 61170  1  0  0  0  0
 62171  1  0  0  0  0
 64172  1  0  0  0  0
 65173  1  0  0  0  0
 66174  1  0  0  0  0
 67175  1  0  0  0  0
 67176  1  0  0  0  0
 67177  1  0  0  0  0
 68178  1  0  0  0  0
 69179  1  0  0  0  0
 70180  1  0  0  0  0
 72181  1  0  0  0  0
 73182  1  0  0  0  0
 74183  1  0  0  0  0
 74184  1  0  0  0  0
 74185  1  0  0  0  0
 75186  1  0  0  0  0
 77187  1  0  0  0  0
 78188  1  0  0  0  0
 80189  1  0  0  0  0
 86190  1  0  0  0  0
 86191  1  0  0  0  0
 87192  1  0  0  0  0
 87193  1  0  0  0  0
 87194  1  0  0  0  0
 98195  1  0  0  0  0
 98196  1  0  0  0  0
 99197  1  0  0  0  0
 99198  1  0  0  0  0
 99199  1  0  0  0  0
106200  1  0  0  0  0
110201  1  0  0  0  0
111202  1  0  0  0  0
112203  1  0  0  0  0
113204  1  0  0  0  0
113205  1  0  0  0  0
113206  1  0  0  0  0
114207  1  0  0  0  0
115208  1  0  0  0  0
116209  1  0  0  0  0
118210  1  0  0  0  0
119211  1  0  0  0  0
120212  1  0  0  0  0
120213  1  0  0  0  0
120214  1  0  0  0  0
121215  1  0  0  0  0
123216  1  0  0  0  0
124217  1  0  0  0  0
124218  1  0  0  0  0
M  END
