240

C         17.06450       -8.10940       -9.97210
S         15.49980       -8.38380       -9.34930
C         16.05720       -9.62600       -8.26730
C         17.43330       -9.81250       -8.42150
C         18.00940       -8.92850       -9.39270
C         19.39930       -8.97070       -9.63990
C         20.18530       -9.84900       -8.95130
S         21.92150       -9.89510       -9.25960
C         19.61520      -10.72870       -7.98040
O         20.46430      -11.57670       -7.33020
C         18.27370      -10.70380       -7.72230
C         15.18640      -10.38960       -7.44000
C         13.95310      -10.07340       -6.97220
C         13.29300       -8.81240       -6.97250
S         11.55860       -8.78490       -7.02690
C         11.48030       -7.05470       -6.95330
C         12.77310       -6.51270       -6.86400
C         13.79340       -7.51010       -6.84320
C         15.12980       -7.11810       -6.63700
C         15.44550       -5.79000       -6.55940
S         17.12700       -5.25410       -6.34660
C         14.44020       -4.78740       -6.64830
O         14.74330       -3.46770       -6.58930
C         13.12540       -5.15510       -6.77560
C         10.26870       -6.33840       -6.92070
C          9.01690       -6.86400       -6.93120
C          7.84990       -6.06870       -6.77010
C          7.76860       -4.71130       -6.61010
C          6.46680       -4.23590       -6.34390
C          6.08930       -2.91380       -6.04850
C          7.11410       -1.86650       -5.95240
C          7.04520       -0.69130       -6.69580
C          8.08590        0.21380       -6.66870
C          9.21680        0.00020       -5.88180
S         10.51860        1.19290       -5.96780
C         12.04580        0.18200       -5.86070
C         12.10120       -0.90010       -6.91990
C          9.22530       -1.13190       -5.07180
F         10.24190       -1.36900       -4.21210
C          8.21050       -2.06410       -5.11810
C          4.74630       -2.69000       -5.80570
C          3.78620       -3.73320       -5.81270
C          4.16720       -5.06140       -6.07850
C          3.17530       -6.14260       -6.01330
C          3.00840       -7.04230       -7.06350
C          2.01310       -7.99520       -7.01800
C          1.15890       -8.10650       -5.92160
S         -0.08500       -9.36140       -5.98790
C         -1.54470       -8.59470       -5.18940
C         -1.94560       -7.28460       -5.83470
C          1.38480       -7.24750       -4.85090
C          2.35900       -6.27200       -4.89290
F          0.64570       -7.33390       -3.71690
C          5.50570       -5.27950       -6.35680
S          6.26520       -6.82220       -6.65630
C          2.49950       -3.25940       -5.46800
C          2.46670       -1.93200       -5.14890
S          4.03030       -1.16690       -5.34380
C          1.35740       -1.25100       -4.56120
C          0.24740       -1.86270       -4.05320
C         -0.60780       -0.99100       -3.34110
C         -1.75160       -1.33520       -2.60160
C         -2.18150       -2.73610       -2.50250
C         -1.27450       -3.72550       -2.12940
C         -1.64380       -5.05460       -2.07500
C         -2.94330       -5.44180       -2.38110
S         -3.52420       -7.10690       -2.38970
C         -2.30250       -8.00320       -1.36920
C         -2.37600       -7.60270        0.09140
C         -3.84660       -4.43920       -2.73690
F         -5.11430       -4.78060       -3.04500
C         -3.48980       -3.10980       -2.79730
C         -2.39430       -0.30100       -1.94290
C         -1.94020        1.04220       -1.98520
C         -0.79160        1.38340       -2.72100
C         -0.28320        2.75950       -2.75420
C         -0.07650        3.48100       -1.58150
C          0.37790        4.78480       -1.61410
C          0.63420        5.42030       -2.82440
S          1.20140        7.07620       -3.00510
C          0.85460        7.84250       -1.38330
C         -0.62970        7.99720       -1.11970
C          0.45290        4.67370       -3.99080
C          0.00810        3.37140       -3.97180
F          0.70900        5.24930       -5.18160
C         -0.14860        0.34850       -3.38210
S          1.35900        0.47220       -4.25520
C         -2.74150        1.89120       -1.18260
C         -3.73010        1.23610       -0.50750
S         -3.77160       -0.47360       -0.88820
C         -4.59880        1.78290        0.48550
C         -4.50450        3.01520        1.06440
C         -5.43400        3.22470        2.11260
C         -5.56040        4.35780        2.93430
C         -4.75290        5.56150        2.70220
C         -4.03520        6.15960        3.73620
C         -3.28940        7.29670        3.50750
C         -3.22430        7.87630        2.24370
S         -2.20530        9.31240        2.04060
C         -3.27340       10.44330        1.07390
C         -4.56440       10.75480        1.80300
C         -3.92530        7.25620        1.21440
F         -3.87620        7.74280       -0.04540
C         -4.68970        6.12810        1.43220
C         -6.47430        4.27160        3.97300
C         -7.29790        3.13770        4.18430
C         -7.20300        2.02050        3.33620
C         -8.06800        0.85150        3.53080
C         -7.54360       -0.43700        3.57370
C         -8.35660       -1.53460        3.77940
C         -9.72900       -1.38580        3.94420
S        -10.86810       -2.69630        4.23980
C         -9.97390       -4.19150        3.69450
C         -9.75040       -4.21430        2.19480
C        -10.24130       -0.08790        3.90200
C         -9.44330        1.01400        3.69650
F        -11.56660        0.09990        4.07020
C         -6.24610        2.08380        2.33460
S         -5.87380        0.81660        1.19510
C         -8.11700        3.28930        5.33070
C         -7.95910        4.48690        5.96310
S         -6.78190        5.50710        5.16560
C         -8.61800        4.91260        7.15770
C         -9.71190        4.33840        7.73310
C        -10.10450        4.95740        8.94680
C        -11.14870        4.57670        9.80290
C        -12.05270        3.48100        9.42830
C        -12.71850        3.50990        8.20380
C        -13.52700        2.46100        7.81920
C        -13.69310        1.34740        8.63600
S        -14.73030        0.02590        8.06720
C        -13.59930       -1.40650        8.21930
C        -12.35790       -1.23270        7.36750
C        -13.05580        1.34970        9.87260
F        -13.20660        0.31090       10.72040
C        -12.24290        2.39220       10.27160
C        -11.27020        5.28480       10.98820
C        -10.41430        6.35820       11.33880
C         -9.37560        6.74340       10.47840
C         -8.43770        7.82050       10.82030
C         -8.17390        8.85380        9.92360
C         -7.26040        9.83770       10.23610
C         -6.57690        9.83330       11.44990
S         -5.45300       11.16520       11.75950
C         -4.00800       10.34320       12.52790
C         -3.42480        9.26970       11.63130
C         -6.86930        8.80980       12.34600
C         -7.77160        7.81080       12.04150
F         -6.27110        8.75680       13.55700
C         -9.25300        6.03420        9.29230
S         -8.01690        6.27270        8.08420
C        -10.79680        6.94490       12.58200
C        -11.86610        6.34230       13.14030
S        -12.49120        5.02630       12.20660
H         17.21310       -7.36650      -10.72950
H         19.83610       -8.30780      -10.36980
H         22.16810      -10.86560       -8.38690
H         19.96800      -12.12410       -6.71070
H         17.85570      -11.36940       -6.97950
H         15.55520      -11.38120       -7.20660
H         13.37330      -10.88030       -6.54040
H         15.89500       -7.86990       -6.52350
H         17.66560       -6.46510       -6.42680
H         15.69660       -3.34530       -6.49130
H         12.37950       -4.37880       -6.80700
H         10.38160       -5.26680       -6.84480
H          8.88230       -7.93370       -7.01400
H          8.61780       -4.05770       -6.67800
H          6.19120       -0.50850       -7.32970
H          8.04940        1.10480       -7.27580
H         12.12750       -0.22750       -4.85640
H         12.83730        0.91650       -6.00860
H         12.04350       -0.46580       -7.91570
H         11.27430       -1.59860       -6.80250
H         13.03270       -1.45570       -6.82890
H          8.27290       -2.93310       -4.48070
H          3.64030       -6.96920       -7.93490
H          1.86780       -8.67190       -7.84540
H         -1.34350       -8.47920       -4.12780
H         -2.32170       -9.34750       -5.31980
H         -2.86410       -6.92440       -5.37590
H         -2.11430       -7.41780       -6.90100
H         -1.17460       -6.52810       -5.69820
H          2.49420       -5.63420       -4.03260
H          1.62710       -3.88540       -5.45550
H          0.05480       -2.91370       -4.15740
H         -0.26570       -3.44810       -1.86280
H         -0.90370       -5.79030       -1.80620
H         -1.30910       -7.85270       -1.78930
H         -2.58220       -9.04860       -1.50060
H         -2.13780       -6.54860        0.21900
H         -3.37680       -7.77800        0.47950
H         -1.66860       -8.19170        0.67160
H         -4.22710       -2.37970       -3.09180
H         -0.24760        3.00610       -0.62690
H          0.53870        5.30260       -0.68240
H          1.33790        8.81660       -1.45700
H          1.35840        7.26610       -0.60840
H         -1.08940        8.60730       -1.89350
H         -0.78150        8.48030       -0.15650
H         -1.13070        7.03160       -1.10650
H         -0.13390        2.85180       -4.90620
H         -2.58480        2.95130       -1.11140
H         -3.76160        3.73910        0.78520
H         -4.05350        5.72470        4.72320
H         -2.73820        7.75880        4.31140
H         -3.45170       10.00780        0.09330
H         -2.65840       11.33590        0.96030
H         -4.35720       11.16490        2.78930
H         -5.16900        9.85720        1.92260
H         -5.13880       11.48370        1.23500
H         -5.23980        5.70440        0.60600
H         -6.47990       -0.58580        3.47130
H         -7.90560       -2.51240        3.82350
H         -9.04410       -4.26860        4.25690
H        -10.63240       -5.00400        4.00180
H         -9.25810       -5.14160        1.90870
H        -10.70230       -4.15090        1.67270
H         -9.12870       -3.37970        1.87730
H         -9.89970        1.98990        3.64060
H         -8.76710        2.51680        5.69690
H        -10.22310        3.49080        7.31530
H        -12.60160        4.36520        7.55560
H        -14.03540        2.47900        6.86790
H        -13.35890       -1.55090        9.27090
H        -14.19970       -2.24650        7.87200
H        -12.62680       -1.05720        6.32840
H        -11.74760       -2.13200        7.41840
H        -11.76230       -0.39070        7.71810
H        -11.75500        2.33840       11.23240
H         -8.69410        8.88870        8.97900
H         -7.05600       10.63460        9.53840
H         -4.29760        9.95090       13.50010
H         -3.30290       11.16200       12.67140
H         -2.52270        8.86410       12.08500
H         -4.13340        8.45570       11.48800
H         -3.17180        9.68190       10.65670
H         -7.93840        7.02320       12.76030
H        -10.29570        7.79110       13.01550
H        -12.34990        6.58660       14.06580
