228

C          1.22540      -16.09630       15.42040
O          1.40530      -17.34800       15.89310
C          1.05730      -18.19820       14.92090
C          0.64720      -17.52510       13.81510
C          0.75030      -16.13860       14.13600
N          0.45700      -15.13180       13.23660
C          0.17370      -13.81150       13.47320
C         -0.02300      -13.22980       14.66940
C         -0.29800      -11.83850       14.88300
O         -0.09880      -11.35210       16.13670
C         -0.38300      -10.04140       16.12050
C         -0.78260       -9.64280       14.88450
C         -0.74130      -10.80630       14.06880
N         -1.12570      -10.90810       12.74570
C         -1.26020       -9.87130       11.88570
C         -1.73140       -9.99130       10.62580
C         -1.81260       -8.91250        9.70360
C         -2.24560       -8.96420        8.40830
C         -2.16430       -7.72960        7.72120
C         -2.53200       -7.44580        6.39710
C         -3.00710       -8.46300        5.45190
C         -4.14680       -8.23400        4.68490
C         -4.53500       -9.11870        3.69970
C         -3.79040      -10.26280        3.43670
S         -4.16510      -11.41960        2.15940
C         -5.08010      -10.41380        0.93630
C         -4.23510       -9.30230        0.34610
C         -2.68290      -10.50860        4.24860
F         -1.95450      -11.62700        4.05120
C         -2.28610       -9.63520        5.23760
C         -2.36870       -6.13560        5.97320
C         -1.85400       -5.10220        6.79090
C         -1.50460       -5.38200        8.12510
C         -1.00530       -4.32540        9.01230
C         -1.69220       -3.11820        9.13750
C         -1.23450       -2.13440        9.98690
C         -0.06920       -2.30410       10.73220
S          0.44590       -0.95040       11.74890
C          1.07160       -1.74980       13.27260
C          0.02280       -2.62590       13.92730
C          0.62080       -3.50200       10.57580
C          0.16000       -4.50620        9.74890
F          1.78270       -3.72290       11.23060
C         -1.65800       -6.69200        8.54700
S         -1.29510       -7.29190       10.14620
C         -1.68200       -3.89230        6.07060
C         -2.05490       -3.98140        4.76240
S         -2.66370       -5.57520        4.35020
C         -1.96170       -3.01030        3.72560
C         -2.31350       -3.19660        2.42150
C         -2.02190       -2.09310        1.58580
C         -2.24240       -1.98410        0.20140
C         -2.80160       -3.11500       -0.54990
C         -3.91400       -2.95930       -1.37370
C         -4.46530       -4.04600       -2.02030
C         -3.93450       -5.32500       -1.87100
S         -4.77820       -6.66660       -2.66130
C         -3.42380       -7.67880       -3.36610
C         -2.56250       -6.88140       -4.32400
C         -2.81700       -5.46450       -1.05400
F         -2.25620       -6.67660       -0.84870
C         -2.24560       -4.38420       -0.41440
C         -1.89670       -0.77870       -0.38740
C         -1.34080        0.29940        0.34570
C         -1.12070        0.19140        1.72980
C         -0.54060        1.31040        2.48160
C         -1.05700        2.60020        2.35710
C         -0.48670        3.65490        3.03670
C          0.62260        3.46980        3.85890
S          1.32010        4.90190        4.63030
C          1.69140        4.33950        6.33250
C          0.46100        3.79760        7.03090
C          1.13100        2.17930        3.96990
C          0.55770        1.11060        3.31100
F          2.22550        1.93150        4.72090
C         -1.45520       -1.01800        2.31590
S         -1.27900       -1.42170        4.00660
C         -0.99030        1.38070       -0.49630
C         -1.26050        1.16440       -1.81450
S         -1.98870       -0.40590       -2.09280
C         -0.96410        2.06700       -2.87720
C         -1.01590        1.87440       -4.22540
C         -0.56050        2.99170       -4.97480
C         -0.40430        3.11220       -6.36720
C         -0.89660        2.08170       -7.28760
C         -2.18650        1.56900       -7.14680
C         -2.68140        0.65220       -8.04870
C         -1.91300        0.20370       -9.12060
S         -2.63730       -0.98460      -10.21410
C         -2.18010       -0.35650      -11.87270
C         -2.65400        1.06650      -12.08960
C         -0.61570        0.69420       -9.22780
F          0.20340        0.26850      -10.21600
C         -0.11200        1.62440       -8.34180
C          0.20550        4.27210       -6.82650
C          0.60690        5.33470       -5.97740
C          0.40390        5.23480       -4.59520
C          0.78510        6.28930       -3.64450
C          2.09390        6.75680       -3.56360
C          2.44850        7.67300       -2.59190
C          1.50940        8.14910       -1.68870
S          1.99080        9.27530       -0.39080
C          2.58880        8.03830        0.82400
C          1.48290        7.13290        1.32730
C          0.19690        7.71010       -1.80540
C         -0.16930        6.78310       -2.76120
F         -0.74700        8.16750       -0.96610
C         -0.16090        4.05780       -4.13290
S         -0.38360        3.66710       -2.45170
C          1.17030        6.41690       -6.69980
C          1.22490        6.20260       -8.04330
S          0.54740        4.64880       -8.49550
C          1.78660        7.03900       -9.05190
C          1.92330        6.74630      -10.37490
C          2.57130        7.76400      -11.11950
C          2.85530        7.77510      -12.49420
C          2.59280        6.58890      -13.31580
C          3.05190        5.34160      -12.89880
C          2.79770        4.20160      -13.63390
C          2.06020        4.26470      -14.81100
S          1.64700        2.88490      -15.82430
C          1.98160        1.43990      -14.75720
C          0.99380        1.32630      -13.61200
C          1.63270        5.52550      -15.23280
F          0.93010        5.62690      -16.37840
C          1.88930        6.67230      -14.51460
C          3.42340        8.93510      -13.00050
C          3.74930       10.05270      -12.19310
C          3.49190       10.02810      -10.81440
C          3.81450       11.16230       -9.93930
C          3.36830       12.45030      -10.22930
C          3.63690       13.49430       -9.37030
C          4.37340       13.30410       -8.20190
S          4.67890       14.72640       -7.19740
C          4.55370       14.10120       -5.48050
C          3.21560       13.44510       -5.20730
C          4.84530       12.02020       -7.94690
C          4.55890       10.96010       -8.78250
F          5.61280       11.76350       -6.86480
C          2.90750        8.87570      -10.31060
S          2.44770        8.61170       -8.64630
C          4.38560       11.07910      -12.95290
C          4.52060       10.76020      -14.25590
S          3.89450        9.19870      -14.65920
H          1.49490      -15.29370       16.07360
H          1.13990      -19.24660       15.12720
H          0.31450      -17.94310       12.88700
H          0.38170      -15.44330       12.28120
H          0.13170      -13.22900       12.56360
H          0.05160      -13.80930       15.57420
H         -0.26990       -9.50320       17.04010
H         -1.08310       -8.65780       14.59370
H         -1.40280      -11.82420       12.42320
H         -0.93420       -8.91080       12.25720
H         -2.05780      -10.95500       10.25750
H         -2.62400       -9.86420        7.95820
H         -4.74510       -7.35440        4.86750
H         -5.42560       -8.90890        3.12980
H         -5.35570      -11.14120        0.17270
H         -5.99160      -10.03870        1.40030
H         -3.34040       -9.71310       -0.11600
H         -4.80670       -8.76810       -0.41070
H         -3.92770       -8.59280        1.11180
H         -1.39400       -9.85160        5.80440
H         -2.60820       -2.96650        8.58690
H         -1.77650       -1.20730       10.09200
H          1.33000       -0.90300       13.90860
H          1.97680       -2.30450       13.03600
H         -0.23650       -3.46640       13.28600
H         -0.88060       -2.05400       14.12970
H          0.40790       -3.01710       14.86690
H          0.73900       -5.41240        9.66370
H         -1.26410       -2.99650        6.49500
H         -2.77660       -4.10370        2.07760
H         -4.35950       -1.98370       -1.49200
H         -5.33360       -3.92370       -2.64880
H         -2.84180       -8.10650       -2.55290
H         -3.95330       -8.47850       -3.88400
H         -2.04240       -6.07980       -3.80230
H         -1.81980       -7.53440       -4.77800
H         -3.17100       -6.44260       -5.11190
H         -1.36670       -4.54570        0.19040
H         -1.92840        2.76920        1.74320
H         -0.89060        4.65060        2.93960
H          2.49550        3.60780        6.29560
H          2.05540        5.24420        6.81950
H         -0.33600        4.53860        7.03140
H          0.70650        3.54580        8.06050
H          0.09720        2.89840        6.53640
H          1.00300        0.13450        3.42340
H         -0.51630        2.27960       -0.14460
H         -1.32850        0.94420       -4.66560
H         -2.81670        1.92380       -6.34580
H         -3.68550        0.27160       -7.94580
H         -1.10470       -0.45350      -12.00300
H         -2.68460       -1.04710      -12.54850
H         -3.72110        1.14710      -11.89360
H         -2.46730        1.36470      -13.11910
H         -2.12820        1.75620      -11.43140
H          0.90480        1.96070       -8.46930
H          2.84020        6.37630       -4.24450
H          3.46650        8.02370       -2.51680
H          3.39250        7.47270        0.35180
H          2.99890        8.64400        1.63090
H          0.64670        7.72490        1.69180
H          1.12530        6.47750        0.53440
H          1.85110        6.51450        2.14390
H         -1.19630        6.45640       -2.81170
H          1.52470        7.32080       -6.23720
H          1.55570        5.83260      -10.80680
H          3.63720        5.26580      -11.99480
H          3.18520        3.26010      -13.28080
H          1.88450        0.59420      -15.43790
H          3.01460        1.48970      -14.41570
H         -0.01600        1.22010      -14.00060
H          1.02430        2.20790      -12.97530
H          1.22910        0.45560      -13.00320
H          1.51580        7.61550      -14.88020
H          2.77670       12.62320      -11.11540
H          3.27350       14.48690       -9.58670
H          4.67900       15.00300       -4.88100
H          5.38610       13.42860       -5.28630
H          3.15350       13.16470       -4.15780
H          2.40070       14.12890       -5.43570
H          3.09140       12.54650       -5.80900
H          4.95050        9.98590       -8.53430
H          4.73500       12.00050      -12.52390
H          4.95940       11.35100      -15.03620
