
  xtb     03032204193D
 energy: -456.897556055647 gnorm: 0.000701322622 xtb: 6.4.1 (unknown)
231256  0     0  0            999 V2000
    0.8590   -9.9061   12.7185 C   0  0  0  0  0  0  0  0  0  0  0  0
    1.6019   -9.0457   11.9931 C   0  0  0  0  0  0  0  0  0  0  0  0
    0.9792   -8.6789   10.7647 C   0  0  0  0  0  0  0  0  0  0  0  0
    1.4370   -7.7786    9.7909 C   0  0  0  0  0  0  0  0  0  0  0  0
    2.6522   -7.0012    9.9743 C   0  0  0  0  0  0  0  0  0  0  0  0
    3.8962   -6.9634    8.7615 S   0  0  0  0  0  0  0  0  0  0  0  0
    4.8580   -5.8487    9.6715 C   0  0  0  0  0  0  0  0  0  0  0  0
    6.1337   -5.3133    9.1219 C   0  0  0  0  0  0  0  0  0  0  0  0
    5.8596   -4.2056    8.1016 C   0  0  0  0  0  0  0  0  0  0  0  0
    4.2351   -5.5300   10.8408 C   0  0  0  0  0  0  0  0  0  0  0  0
    4.8758   -4.4423   12.0039 Cl  0  0  0  0  0  0  0  0  0  0  0  0
    2.9865   -6.1849   11.0188 C   0  0  0  0  0  0  0  0  0  0  0  0
    1.9771   -5.8941   12.3764 Cl  0  0  0  0  0  0  0  0  0  0  0  0
    0.6557   -7.6297    8.6525 C   0  0  0  0  0  0  0  0  0  0  0  0
   -0.5745   -8.3044    8.4673 C   0  0  0  0  0  0  0  0  0  0  0  0
   -1.0504   -9.1807    9.4568 C   0  0  0  0  0  0  0  0  0  0  0  0
   -2.3308   -9.8536    9.3100 C   0  0  0  0  0  0  0  0  0  0  0  0
   -3.7835   -8.9480    8.9968 S   0  0  0  0  0  0  0  0  0  0  0  0
   -4.7664  -10.3722    8.9924 C   0  0  0  0  0  0  0  0  0  0  0  0
   -6.2407  -10.2872    8.8048 C   0  0  0  0  0  0  0  0  0  0  0  0
   -6.9361   -9.8649   10.1010 C   0  0  0  0  0  0  0  0  0  0  0  0
   -4.0005  -11.4747    9.2263 C   0  0  0  0  0  0  0  0  0  0  0  0
   -2.6199  -11.1863    9.4028 C   0  0  0  0  0  0  0  0  0  0  0  0
   -1.4467  -12.4167    9.6167 Cl  0  0  0  0  0  0  0  0  0  0  0  0
   -4.6186  -13.0742    9.2940 Cl  0  0  0  0  0  0  0  0  0  0  0  0
   -0.2553   -9.3497   10.5846 C   0  0  0  0  0  0  0  0  0  0  0  0
   -0.6317  -10.3449   11.9616 S   0  0  0  0  0  0  0  0  0  0  0  0
   -1.1751   -7.9739    7.2265 C   0  0  0  0  0  0  0  0  0  0  0  0
   -0.4590   -7.0711    6.4999 C   0  0  0  0  0  0  0  0  0  0  0  0
    1.0139   -6.5792    7.3119 S   0  0  0  0  0  0  0  0  0  0  0  0
   -0.7859   -6.5146    5.2294 C   0  0  0  0  0  0  0  0  0  0  0  0
   -0.0656   -5.6039    4.5155 C   0  0  0  0  0  0  0  0  0  0  0  0
   -0.6793   -5.2252    3.2975 C   0  0  0  0  0  0  0  0  0  0  0  0
   -0.1900   -4.3446    2.3168 C   0  0  0  0  0  0  0  0  0  0  0  0
    1.0217   -3.5700    2.5216 C   0  0  0  0  0  0  0  0  0  0  0  0
    1.2497   -2.6944    4.0132 S   0  0  0  0  0  0  0  0  0  0  0  0
    2.7015   -1.9399    3.4506 C   0  0  0  0  0  0  0  0  0  0  0  0
    3.4708   -1.0078    4.3180 C   0  0  0  0  0  0  0  0  0  0  0  0
    4.2067   -1.7625    5.4267 C   0  0  0  0  0  0  0  0  0  0  0  0
    2.9974   -2.3731    2.1938 C   0  0  0  0  0  0  0  0  0  0  0  0
    4.3558   -1.8335    1.2962 Cl  0  0  0  0  0  0  0  0  0  0  0  0
    2.0552   -3.2984    1.6653 C   0  0  0  0  0  0  0  0  0  0  0  0
    2.2963   -4.0551    0.1485 Cl  0  0  0  0  0  0  0  0  0  0  0  0
   -0.9703   -4.1904    1.1745 C   0  0  0  0  0  0  0  0  0  0  0  0
   -2.2183   -4.8367    0.9859 C   0  0  0  0  0  0  0  0  0  0  0  0
   -2.7085   -5.7059    1.9758 C   0  0  0  0  0  0  0  0  0  0  0  0
   -3.9829   -6.3893    1.8276 C   0  0  0  0  0  0  0  0  0  0  0  0
   -4.3247   -7.3636    0.4276 S   0  0  0  0  0  0  0  0  0  0  0  0
   -5.8816   -7.8222    1.0268 C   0  0  0  0  0  0  0  0  0  0  0  0
   -6.7967   -8.6813    0.2261 C   0  0  0  0  0  0  0  0  0  0  0  0
   -7.6450   -7.8352   -0.7266 C   0  0  0  0  0  0  0  0  0  0  0  0
   -6.1139   -7.2355    2.2346 C   0  0  0  0  0  0  0  0  0  0  0  0
   -5.0397   -6.4274    2.6947 C   0  0  0  0  0  0  0  0  0  0  0  0
   -5.1284   -5.5310    4.1527 Cl  0  0  0  0  0  0  0  0  0  0  0  0
   -7.5574   -7.4467    3.1373 Cl  0  0  0  0  0  0  0  0  0  0  0  0
   -1.9159   -5.8898    3.1022 C   0  0  0  0  0  0  0  0  0  0  0  0
   -2.2721   -6.9654    4.4233 S   0  0  0  0  0  0  0  0  0  0  0  0
   -2.8483   -4.4399   -0.2236 C   0  0  0  0  0  0  0  0  0  0  0  0
   -2.1141   -3.5469   -0.9428 C   0  0  0  0  0  0  0  0  0  0  0  0
   -0.6127   -3.1356   -0.1524 S   0  0  0  0  0  0  0  0  0  0  0  0
   -2.3704   -2.8989   -2.1941 C   0  0  0  0  0  0  0  0  0  0  0  0
   -3.5460   -2.5268   -2.7735 C   0  0  0  0  0  0  0  0  0  0  0  0
   -3.3669   -1.7383   -3.9409 C   0  0  0  0  0  0  0  0  0  0  0  0
   -4.3466   -1.1504   -4.7629 C   0  0  0  0  0  0  0  0  0  0  0  0
   -5.7676   -1.3281   -4.5140 C   0  0  0  0  0  0  0  0  0  0  0  0
   -6.4716   -0.9475   -2.9688 S   0  0  0  0  0  0  0  0  0  0  0  0
   -8.0691   -1.3373   -3.5089 C   0  0  0  0  0  0  0  0  0  0  0  0
   -9.2491   -1.1737   -2.6159 C   0  0  0  0  0  0  0  0  0  0  0  0
   -9.7717    0.2642   -2.6582 C   0  0  0  0  0  0  0  0  0  0  0  0
   -8.0422   -1.7276   -4.8137 C   0  0  0  0  0  0  0  0  0  0  0  0
   -9.4350   -2.1950   -5.6994 Cl  0  0  0  0  0  0  0  0  0  0  0  0
   -6.7414   -1.7244   -5.3868 C   0  0  0  0  0  0  0  0  0  0  0  0
   -6.4406   -2.2415   -6.9914 Cl  0  0  0  0  0  0  0  0  0  0  0  0
   -3.9036   -0.3262   -5.7898 C   0  0  0  0  0  0  0  0  0  0  0  0
   -2.5308   -0.0757   -6.0416 C   0  0  0  0  0  0  0  0  0  0  0  0
   -1.5487   -0.7631   -5.3050 C   0  0  0  0  0  0  0  0  0  0  0  0
   -0.1377   -0.6461   -5.6111 C   0  0  0  0  0  0  0  0  0  0  0  0
    1.0393   -0.5016   -4.3430 S   0  0  0  0  0  0  0  0  0  0  0  0
    2.3595   -0.4287   -5.4504 C   0  0  0  0  0  0  0  0  0  0  0  0
    3.7570   -0.2674   -4.9615 C   0  0  0  0  0  0  0  0  0  0  0  0
    4.0693   -1.2226   -3.8118 C   0  0  0  0  0  0  0  0  0  0  0  0
    1.9025   -0.5377   -6.7311 C   0  0  0  0  0  0  0  0  0  0  0  0
    0.4920   -0.6652   -6.8289 C   0  0  0  0  0  0  0  0  0  0  0  0
   -0.2922   -0.9350   -8.3321 Cl  0  0  0  0  0  0  0  0  0  0  0  0
    2.9182   -0.5276   -8.1163 Cl  0  0  0  0  0  0  0  0  0  0  0  0
   -1.9977   -1.5457   -4.2465 C   0  0  0  0  0  0  0  0  0  0  0  0
   -0.9779   -2.3692   -3.1101 S   0  0  0  0  0  0  0  0  0  0  0  0
   -2.3508    0.9402   -7.0083 C   0  0  0  0  0  0  0  0  0  0  0  0
   -3.5261    1.4094   -7.5220 C   0  0  0  0  0  0  0  0  0  0  0  0
   -4.9261    0.6320   -6.8309 S   0  0  0  0  0  0  0  0  0  0  0  0
   -3.6947    2.4225   -8.5034 C   0  0  0  0  0  0  0  0  0  0  0  0
   -2.6328    3.1423   -8.9282 O   0  0  0  0  0  0  0  0  0  0  0  0
   -3.0611    4.0377   -9.8397 C   0  0  0  0  0  0  0  0  0  0  0  0
   -4.4318    3.8849  -10.0322 C   0  0  0  0  0  0  0  0  0  0  0  0
   -4.8458    2.8501   -9.1550 C   0  0  0  0  0  0  0  0  0  0  0  0
   -6.0469    2.2880   -8.9202 O   0  0  0  0  0  0  0  0  0  0  0  0
   -7.1523    2.7829   -9.6480 C   0  0  0  0  0  0  0  0  0  0  0  0
   -5.2220    4.5963  -10.8967 O   0  0  0  0  0  0  0  0  0  0  0  0
   -5.3741    5.9690  -10.5815 C   0  0  0  0  0  0  0  0  0  0  0  0
   -2.1562    4.9552  -10.4629 C   0  0  0  0  0  0  0  0  0  0  0  0
   -0.9938    5.4535   -9.9856 C   0  0  0  0  0  0  0  0  0  0  0  0
   -0.3949    5.3431   -8.6924 C   0  0  0  0  0  0  0  0  0  0  0  0
    0.7236    6.0387   -8.3104 C   0  0  0  0  0  0  0  0  0  0  0  0
    1.0747    5.8761   -6.9495 C   0  0  0  0  0  0  0  0  0  0  0  0
    2.1661    6.4290   -6.2510 C   0  0  0  0  0  0  0  0  0  0  0  0
    3.1524    7.2610   -6.9186 C   0  0  0  0  0  0  0  0  0  0  0  0
    3.9738    6.7203   -8.3539 S   0  0  0  0  0  0  0  0  0  0  0  0
    4.9053    8.1738   -8.4659 C   0  0  0  0  0  0  0  0  0  0  0  0
    5.9289    8.3580   -9.5312 C   0  0  0  0  0  0  0  0  0  0  0  0
    7.2866    7.8106   -9.0843 C   0  0  0  0  0  0  0  0  0  0  0  0
    4.5919    9.0159   -7.4412 C   0  0  0  0  0  0  0  0  0  0  0  0
    5.3071   10.5600   -7.2216 Cl  0  0  0  0  0  0  0  0  0  0  0  0
    3.5982    8.5045   -6.5642 C   0  0  0  0  0  0  0  0  0  0  0  0
    2.9752    9.4164   -5.2538 Cl  0  0  0  0  0  0  0  0  0  0  0  0
    2.2637    6.1279   -4.8986 C   0  0  0  0  0  0  0  0  0  0  0  0
    1.3045    5.3357   -4.2183 C   0  0  0  0  0  0  0  0  0  0  0  0
    0.2531    4.7255   -4.9254 C   0  0  0  0  0  0  0  0  0  0  0  0
   -0.6462    3.7784   -4.2906 C   0  0  0  0  0  0  0  0  0  0  0  0
   -2.3599    3.8133   -4.6069 S   0  0  0  0  0  0  0  0  0  0  0  0
   -2.6697    2.4740   -3.5588 C   0  0  0  0  0  0  0  0  0  0  0  0
   -4.0536    1.9955   -3.2935 C   0  0  0  0  0  0  0  0  0  0  0  0
   -4.7094    2.7984   -2.1680 C   0  0  0  0  0  0  0  0  0  0  0  0
   -1.5052    2.0312   -3.0077 C   0  0  0  0  0  0  0  0  0  0  0  0
   -0.3570    2.7561   -3.4237 C   0  0  0  0  0  0  0  0  0  0  0  0
    1.2155    2.2943   -2.9171 Cl  0  0  0  0  0  0  0  0  0  0  0  0
   -1.4158    0.7235   -1.9059 Cl  0  0  0  0  0  0  0  0  0  0  0  0
    0.1550    5.0355   -6.2770 C   0  0  0  0  0  0  0  0  0  0  0  0
   -1.0576    4.4248   -7.3571 S   0  0  0  0  0  0  0  0  0  0  0  0
    1.6110    5.2085   -2.8450 C   0  0  0  0  0  0  0  0  0  0  0  0
    2.8191    5.7411   -2.4998 C   0  0  0  0  0  0  0  0  0  0  0  0
    3.5750    6.5745   -3.8385 S   0  0  0  0  0  0  0  0  0  0  0  0
    3.4745    5.4949   -1.2523 C   0  0  0  0  0  0  0  0  0  0  0  0
    3.1855    4.4270   -0.4544 C   0  0  0  0  0  0  0  0  0  0  0  0
    4.0307    4.3144    0.6726 C   0  0  0  0  0  0  0  0  0  0  0  0
    4.0251    3.2983    1.6425 C   0  0  0  0  0  0  0  0  0  0  0  0
    3.1061    2.1800    1.4963 C   0  0  0  0  0  0  0  0  0  0  0  0
    1.8921    1.8171    2.6853 S   0  0  0  0  0  0  0  0  0  0  0  0
    1.1879    0.5776    1.7008 C   0  0  0  0  0  0  0  0  0  0  0  0
   -0.0593   -0.1124    2.1269 C   0  0  0  0  0  0  0  0  0  0  0  0
   -1.2882    0.7567    1.8506 C   0  0  0  0  0  0  0  0  0  0  0  0
    1.8777    0.4480    0.5323 C   0  0  0  0  0  0  0  0  0  0  0  0
    1.4953   -0.6818   -0.7002 Cl  0  0  0  0  0  0  0  0  0  0  0  0
    2.9644    1.3560    0.4149 C   0  0  0  0  0  0  0  0  0  0  0  0
    4.0101    1.3705   -0.9426 Cl  0  0  0  0  0  0  0  0  0  0  0  0
    4.9129    3.4388    2.6975 C   0  0  0  0  0  0  0  0  0  0  0  0
    5.8237    4.5190    2.7934 C   0  0  0  0  0  0  0  0  0  0  0  0
    5.8772    5.4927    1.7820 C   0  0  0  0  0  0  0  0  0  0  0  0
    6.8561    6.5669    1.8161 C   0  0  0  0  0  0  0  0  0  0  0  0
    6.3802    8.2311    1.6633 S   0  0  0  0  0  0  0  0  0  0  0  0
    8.0129    8.7898    1.7860 C   0  0  0  0  0  0  0  0  0  0  0  0
    8.3407   10.2374    1.6712 C   0  0  0  0  0  0  0  0  0  0  0  0
    8.4348   10.6580    0.2024 C   0  0  0  0  0  0  0  0  0  0  0  0
    8.8665    7.7358    1.9222 C   0  0  0  0  0  0  0  0  0  0  0  0
    8.2141    6.4740    1.9455 C   0  0  0  0  0  0  0  0  0  0  0  0
    9.0732    4.9908    2.0435 Cl  0  0  0  0  0  0  0  0  0  0  0  0
   10.5696    7.8936    2.0620 Cl  0  0  0  0  0  0  0  0  0  0  0  0
    4.9608    5.3771    0.7442 C   0  0  0  0  0  0  0  0  0  0  0  0
    4.8065    6.4427   -0.6291 S   0  0  0  0  0  0  0  0  0  0  0  0
    6.5920    4.4461    3.9928 C   0  0  0  0  0  0  0  0  0  0  0  0
    6.3023    3.3597    4.7365 C   0  0  0  0  0  0  0  0  0  0  0  0
    5.0769    2.3510    4.0461 S   0  0  0  0  0  0  0  0  0  0  0  0
    1.0923  -10.3341   13.6738 H   0  0  0  0  0  0  0  0  0  0  0  0
    2.5651   -8.6827   12.3004 H   0  0  0  0  0  0  0  0  0  0  0  0
    6.6891   -6.1199    8.6400 H   0  0  0  0  0  0  0  0  0  0  0  0
    6.7322   -4.9183    9.9444 H   0  0  0  0  0  0  0  0  0  0  0  0
    5.2587   -4.5905    7.2811 H   0  0  0  0  0  0  0  0  0  0  0  0
    6.7954   -3.8252    7.7019 H   0  0  0  0  0  0  0  0  0  0  0  0
    5.3216   -3.3856    8.5701 H   0  0  0  0  0  0  0  0  0  0  0  0
   -6.6091  -11.2655    8.4913 H   0  0  0  0  0  0  0  0  0  0  0  0
   -6.4649   -9.5607    8.0212 H   0  0  0  0  0  0  0  0  0  0  0  0
   -6.5742   -8.8911   10.4223 H   0  0  0  0  0  0  0  0  0  0  0  0
   -8.0098   -9.8047    9.9456 H   0  0  0  0  0  0  0  0  0  0  0  0
   -6.7375  -10.5873   10.8887 H   0  0  0  0  0  0  0  0  0  0  0  0
   -2.1034   -8.3892    6.8784 H   0  0  0  0  0  0  0  0  0  0  0  0
    0.8818   -5.2270    4.8553 H   0  0  0  0  0  0  0  0  0  0  0  0
    2.7921   -0.2794    4.7665 H   0  0  0  0  0  0  0  0  0  0  0  0
    4.1889   -0.4693    3.6982 H   0  0  0  0  0  0  0  0  0  0  0  0
    3.4978   -2.2971    6.0547 H   0  0  0  0  0  0  0  0  0  0  0  0
    4.7632   -1.0626    6.0433 H   0  0  0  0  0  0  0  0  0  0  0  0
    4.9027   -2.4796    4.9989 H   0  0  0  0  0  0  0  0  0  0  0  0
   -7.4500   -9.2286    0.9080 H   0  0  0  0  0  0  0  0  0  0  0  0
   -6.2099   -9.3987   -0.3495 H   0  0  0  0  0  0  0  0  0  0  0  0
   -7.0063   -7.2885   -1.4163 H   0  0  0  0  0  0  0  0  0  0  0  0
   -8.2430   -7.1217   -0.1653 H   0  0  0  0  0  0  0  0  0  0  0  0
   -8.3113   -8.4737   -1.3000 H   0  0  0  0  0  0  0  0  0  0  0  0
   -3.7990   -4.8171   -0.5514 H   0  0  0  0  0  0  0  0  0  0  0  0
   -4.5064   -2.7625   -2.3538 H   0  0  0  0  0  0  0  0  0  0  0  0
   -8.9682   -1.4283   -1.5925 H   0  0  0  0  0  0  0  0  0  0  0  0
  -10.0340   -1.8570   -2.9452 H   0  0  0  0  0  0  0  0  0  0  0  0
   -8.9997    0.9560   -2.3295 H   0  0  0  0  0  0  0  0  0  0  0  0
  -10.6344    0.3673   -2.0056 H   0  0  0  0  0  0  0  0  0  0  0  0
  -10.0665    0.5275   -3.6707 H   0  0  0  0  0  0  0  0  0  0  0  0
    4.4381   -0.4406   -5.7969 H   0  0  0  0  0  0  0  0  0  0  0  0
    3.8997    0.7624   -4.6181 H   0  0  0  0  0  0  0  0  0  0  0  0
    3.4073   -1.0297   -2.9709 H   0  0  0  0  0  0  0  0  0  0  0  0
    3.9359   -2.2550   -4.1264 H   0  0  0  0  0  0  0  0  0  0  0  0
    5.0959   -1.0881   -3.4811 H   0  0  0  0  0  0  0  0  0  0  0  0
   -1.3989    1.3396   -7.3024 H   0  0  0  0  0  0  0  0  0  0  0  0
   -7.4000    3.8040   -9.3435 H   0  0  0  0  0  0  0  0  0  0  0  0
   -7.9815    2.1207   -9.4061 H   0  0  0  0  0  0  0  0  0  0  0  0
   -6.9606    2.7656  -10.7231 H   0  0  0  0  0  0  0  0  0  0  0  0
   -5.9626    6.3962  -11.3909 H   0  0  0  0  0  0  0  0  0  0  0  0
   -4.4096    6.4786  -10.5152 H   0  0  0  0  0  0  0  0  0  0  0  0
   -5.9085    6.0967   -9.6332 H   0  0  0  0  0  0  0  0  0  0  0  0
   -2.4802    5.2841  -11.4418 H   0  0  0  0  0  0  0  0  0  0  0  0
   -0.4412    6.1103  -10.6468 H   0  0  0  0  0  0  0  0  0  0  0  0
    1.2711    6.6680   -8.9887 H   0  0  0  0  0  0  0  0  0  0  0  0
    5.6074    7.8398  -10.4361 H   0  0  0  0  0  0  0  0  0  0  0  0
    6.0199    9.4238   -9.7498 H   0  0  0  0  0  0  0  0  0  0  0  0
    7.6245    8.3272   -8.1896 H   0  0  0  0  0  0  0  0  0  0  0  0
    8.0237    7.9541   -9.8696 H   0  0  0  0  0  0  0  0  0  0  0  0
    7.2115    6.7482   -8.8649 H   0  0  0  0  0  0  0  0  0  0  0  0
   -4.6513    2.0885   -4.2015 H   0  0  0  0  0  0  0  0  0  0  0  0
   -4.0136    0.9429   -3.0074 H   0  0  0  0  0  0  0  0  0  0  0  0
   -4.1311    2.7046   -1.2524 H   0  0  0  0  0  0  0  0  0  0  0  0
   -5.7126    2.4236   -1.9857 H   0  0  0  0  0  0  0  0  0  0  0  0
   -4.7687    3.8500   -2.4376 H   0  0  0  0  0  0  0  0  0  0  0  0
    0.9530    4.7520   -2.1318 H   0  0  0  0  0  0  0  0  0  0  0  0
    2.4065    3.7238   -0.6777 H   0  0  0  0  0  0  0  0  0  0  0  0
   -0.0115   -0.3320    3.1947 H   0  0  0  0  0  0  0  0  0  0  0  0
   -0.1452   -1.0509    1.5770 H   0  0  0  0  0  0  0  0  0  0  0  0
   -1.3630    0.9785    0.7900 H   0  0  0  0  0  0  0  0  0  0  0  0
   -1.2191    1.6929    2.3998 H   0  0  0  0  0  0  0  0  0  0  0  0
   -2.1887    0.2334    2.1610 H   0  0  0  0  0  0  0  0  0  0  0  0
    9.2951   10.4220    2.1675 H   0  0  0  0  0  0  0  0  0  0  0  0
    7.5670   10.8251    2.1681 H   0  0  0  0  0  0  0  0  0  0  0  0
    7.4897   10.4753   -0.3033 H   0  0  0  0  0  0  0  0  0  0  0  0
    8.6714   11.7162    0.1315 H   0  0  0  0  0  0  0  0  0  0  0  0
    9.2137   10.0918   -0.3019 H   0  0  0  0  0  0  0  0  0  0  0  0
    7.3147    5.1874    4.2790 H   0  0  0  0  0  0  0  0  0  0  0  0
    6.7333    3.0702    5.6749 H   0  0  0  0  0  0  0  0  0  0  0  0
  1  2  2  0  0  0  0
  2  3  1  0  0  0  0
  3  4  2  0  0  0  0
  4  5  1  0  0  0  0
  5  6  1  0  0  0  0
  6  7  1  0  0  0  0
  7  8  1  0  0  0  0
  8  9  1  0  0  0  0
  7 10  2  0  0  0  0
 10 11  1  0  0  0  0
 10 12  1  0  0  0  0
 12 13  1  0  0  0  0
  4 14  1  0  0  0  0
 14 15  2  0  0  0  0
 15 16  1  0  0  0  0
 16 17  1  0  0  0  0
 17 18  1  0  0  0  0
 18 19  1  0  0  0  0
 19 20  1  0  0  0  0
 20 21  1  0  0  0  0
 19 22  2  0  0  0  0
 22 23  1  0  0  0  0
 23 24  1  0  0  0  0
 22 25  1  0  0  0  0
 16 26  2  0  0  0  0
 26 27  1  0  0  0  0
 15 28  1  0  0  0  0
 28 29  2  0  0  0  0
 29 30  1  0  0  0  0
 29 31  1  0  0  0  0
 31 32  2  0  0  0  0
 32 33  1  0  0  0  0
 33 34  2  0  0  0  0
 34 35  1  0  0  0  0
 35 36  1  0  0  0  0
 36 37  1  0  0  0  0
 37 38  1  0  0  0  0
 38 39  1  0  0  0  0
 37 40  2  0  0  0  0
 40 41  1  0  0  0  0
 40 42  1  0  0  0  0
 42 43  1  0  0  0  0
 34 44  1  0  0  0  0
 44 45  2  0  0  0  0
 45 46  1  0  0  0  0
 46 47  1  0  0  0  0
 47 48  1  0  0  0  0
 48 49  1  0  0  0  0
 49 50  1  0  0  0  0
 50 51  1  0  0  0  0
 49 52  2  0  0  0  0
 52 53  1  0  0  0  0
 53 54  1  0  0  0  0
 52 55  1  0  0  0  0
 46 56  2  0  0  0  0
 56 57  1  0  0  0  0
 45 58  1  0  0  0  0
 58 59  2  0  0  0  0
 59 60  1  0  0  0  0
 59 61  1  0  0  0  0
 61 62  2  0  0  0  0
 62 63  1  0  0  0  0
 63 64  2  0  0  0  0
 64 65  1  0  0  0  0
 65 66  1  0  0  0  0
 66 67  1  0  0  0  0
 67 68  1  0  0  0  0
 68 69  1  0  0  0  0
 67 70  2  0  0  0  0
 70 71  1  0  0  0  0
 70 72  1  0  0  0  0
 72 73  1  0  0  0  0
 64 74  1  0  0  0  0
 74 75  2  0  0  0  0
 75 76  1  0  0  0  0
 76 77  1  0  0  0  0
 77 78  1  0  0  0  0
 78 79  1  0  0  0  0
 79 80  1  0  0  0  0
 80 81  1  0  0  0  0
 79 82  2  0  0  0  0
 82 83  1  0  0  0  0
 83 84  1  0  0  0  0
 82 85  1  0  0  0  0
 76 86  2  0  0  0  0
 86 87  1  0  0  0  0
 75 88  1  0  0  0  0
 88 89  2  0  0  0  0
 89 90  1  0  0  0  0
 89 91  1  0  0  0  0
 91 92  1  0  0  0  0
 92 93  1  0  0  0  0
 93 94  2  0  0  0  0
 94 95  1  0  0  0  0
 95 96  1  0  0  0  0
 96 97  1  0  0  0  0
 94 98  1  0  0  0  0
 98 99  1  0  0  0  0
 93100  1  0  0  0  0
100101  2  0  0  0  0
101102  1  0  0  0  0
102103  2  0  0  0  0
103104  1  0  0  0  0
104105  2  0  0  0  0
105106  1  0  0  0  0
106107  1  0  0  0  0
107108  1  0  0  0  0
108109  1  0  0  0  0
109110  1  0  0  0  0
108111  2  0  0  0  0
111112  1  0  0  0  0
111113  1  0  0  0  0
113114  1  0  0  0  0
105115  1  0  0  0  0
115116  2  0  0  0  0
116117  1  0  0  0  0
117118  1  0  0  0  0
118119  1  0  0  0  0
119120  1  0  0  0  0
120121  1  0  0  0  0
121122  1  0  0  0  0
120123  2  0  0  0  0
123124  1  0  0  0  0
124125  1  0  0  0  0
123126  1  0  0  0  0
117127  2  0  0  0  0
127128  1  0  0  0  0
116129  1  0  0  0  0
129130  2  0  0  0  0
130131  1  0  0  0  0
130132  1  0  0  0  0
132133  2  0  0  0  0
133134  1  0  0  0  0
134135  2  0  0  0  0
135136  1  0  0  0  0
136137  1  0  0  0  0
137138  1  0  0  0  0
138139  1  0  0  0  0
139140  1  0  0  0  0
138141  2  0  0  0  0
141142  1  0  0  0  0
141143  1  0  0  0  0
143144  1  0  0  0  0
135145  1  0  0  0  0
145146  2  0  0  0  0
146147  1  0  0  0  0
147148  1  0  0  0  0
148149  1  0  0  0  0
149150  1  0  0  0  0
150151  1  0  0  0  0
151152  1  0  0  0  0
150153  2  0  0  0  0
153154  1  0  0  0  0
154155  1  0  0  0  0
153156  1  0  0  0  0
147157  2  0  0  0  0
157158  1  0  0  0  0
146159  1  0  0  0  0
159160  2  0  0  0  0
160161  1  0  0  0  0
 27  1  1  0  0  0  0
 57 31  1  0  0  0  0
 87 61  1  0  0  0  0
 95 91  2  0  0  0  0
128102  1  0  0  0  0
158132  1  0  0  0  0
 26  3  1  0  0  0  0
 56 33  1  0  0  0  0
 86 63  1  0  0  0  0
127104  1  0  0  0  0
157134  1  0  0  0  0
 12  5  2  0  0  0  0
 30 14  1  0  0  0  0
 42 35  2  0  0  0  0
 60 44  1  0  0  0  0
 72 65  2  0  0  0  0
 90 74  1  0  0  0  0
113106  2  0  0  0  0
131115  1  0  0  0  0
143136  2  0  0  0  0
161145  1  0  0  0  0
 23 17  2  0  0  0  0
 53 47  2  0  0  0  0
 83 77  2  0  0  0  0
124118  2  0  0  0  0
154148  2  0  0  0  0
  1162  1  0  0  0  0
  2163  1  0  0  0  0
  8164  1  0  0  0  0
  8165  1  0  0  0  0
  9166  1  0  0  0  0
  9167  1  0  0  0  0
  9168  1  0  0  0  0
 20169  1  0  0  0  0
 20170  1  0  0  0  0
 21171  1  0  0  0  0
 21172  1  0  0  0  0
 21173  1  0  0  0  0
 28174  1  0  0  0  0
 32175  1  0  0  0  0
 38176  1  0  0  0  0
 38177  1  0  0  0  0
 39178  1  0  0  0  0
 39179  1  0  0  0  0
 39180  1  0  0  0  0
 50181  1  0  0  0  0
 50182  1  0  0  0  0
 51183  1  0  0  0  0
 51184  1  0  0  0  0
 51185  1  0  0  0  0
 58186  1  0  0  0  0
 62187  1  0  0  0  0
 68188  1  0  0  0  0
 68189  1  0  0  0  0
 69190  1  0  0  0  0
 69191  1  0  0  0  0
 69192  1  0  0  0  0
 80193  1  0  0  0  0
 80194  1  0  0  0  0
 81195  1  0  0  0  0
 81196  1  0  0  0  0
 81197  1  0  0  0  0
 88198  1  0  0  0  0
 97199  1  0  0  0  0
 97200  1  0  0  0  0
 97201  1  0  0  0  0
 99202  1  0  0  0  0
 99203  1  0  0  0  0
 99204  1  0  0  0  0
100205  1  0  0  0  0
101206  1  0  0  0  0
103207  1  0  0  0  0
109208  1  0  0  0  0
109209  1  0  0  0  0
110210  1  0  0  0  0
110211  1  0  0  0  0
110212  1  0  0  0  0
121213  1  0  0  0  0
121214  1  0  0  0  0
122215  1  0  0  0  0
122216  1  0  0  0  0
122217  1  0  0  0  0
129218  1  0  0  0  0
133219  1  0  0  0  0
139220  1  0  0  0  0
139221  1  0  0  0  0
140222  1  0  0  0  0
140223  1  0  0  0  0
140224  1  0  0  0  0
151225  1  0  0  0  0
151226  1  0  0  0  0
152227  1  0  0  0  0
152228  1  0  0  0  0
152229  1  0  0  0  0
159230  1  0  0  0  0
160231  1  0  0  0  0
M  END
