
  xtb     03022215123D
 energy: -445.597848738522 gnorm: 0.000371987549 xtb: 6.4.1 (unknown)
226251  0     0  0            999 V2000
    2.3279   -2.0462    9.6778 C   0  0  0  0  0  0  0  0  0  0  0  0
    2.7627   -1.2911    8.6492 C   0  0  0  0  0  0  0  0  0  0  0  0
    2.2402   -1.7130    7.3918 C   0  0  0  0  0  0  0  0  0  0  0  0
    2.4573   -1.1579    6.1212 C   0  0  0  0  0  0  0  0  0  0  0  0
    3.2485    0.0447    5.9309 C   0  0  0  0  0  0  0  0  0  0  0  0
    4.4786    0.0906    4.7033 S   0  0  0  0  0  0  0  0  0  0  0  0
    4.8990    1.7271    5.0588 C   0  0  0  0  0  0  0  0  0  0  0  0
    5.9524    2.4402    4.2837 C   0  0  0  0  0  0  0  0  0  0  0  0
    5.3419    3.5022    3.3668 C   0  0  0  0  0  0  0  0  0  0  0  0
    4.1196    2.2001    6.0718 C   0  0  0  0  0  0  0  0  0  0  0  0
    4.2459    3.7861    6.7132 Cl  0  0  0  0  0  0  0  0  0  0  0  0
    3.1850    1.2527    6.5714 C   0  0  0  0  0  0  0  0  0  0  0  0
    2.0620    1.6633    7.7999 Cl  0  0  0  0  0  0  0  0  0  0  0  0
    1.8716   -1.8108    5.0416 C   0  0  0  0  0  0  0  0  0  0  0  0
    1.0485   -2.9539    5.1782 C   0  0  0  0  0  0  0  0  0  0  0  0
    0.8373   -3.5115    6.4497 C   0  0  0  0  0  0  0  0  0  0  0  0
    0.0693   -4.7326    6.6366 C   0  0  0  0  0  0  0  0  0  0  0  0
   -1.5803   -4.8898    6.1101 S   0  0  0  0  0  0  0  0  0  0  0  0
   -1.7111   -6.5044    6.7256 C   0  0  0  0  0  0  0  0  0  0  0  0
   -2.9734   -7.2845    6.5999 C   0  0  0  0  0  0  0  0  0  0  0  0
   -4.1940   -6.4729    7.0267 C   0  0  0  0  0  0  0  0  0  0  0  0
   -0.5324   -6.8865    7.2908 C   0  0  0  0  0  0  0  0  0  0  0  0
    0.4787   -5.8884    7.2392 C   0  0  0  0  0  0  0  0  0  0  0  0
    2.0710   -6.1648    7.8066 Cl  0  0  0  0  0  0  0  0  0  0  0  0
   -0.2624   -8.4239    8.0054 Cl  0  0  0  0  0  0  0  0  0  0  0  0
    1.4307   -2.8667    7.5283 C   0  0  0  0  0  0  0  0  0  0  0  0
    1.2783   -3.3329    9.1982 S   0  0  0  0  0  0  0  0  0  0  0  0
    0.5415   -3.3958    3.9312 C   0  0  0  0  0  0  0  0  0  0  0  0
    0.9467   -2.6295    2.8763 C   0  0  0  0  0  0  0  0  0  0  0  0
    2.0014   -1.3315    3.3782 S   0  0  0  0  0  0  0  0  0  0  0  0
    0.5586   -2.7608    1.5065 C   0  0  0  0  0  0  0  0  0  0  0  0
   -0.4375   -3.5562    1.0191 C   0  0  0  0  0  0  0  0  0  0  0  0
   -0.6752   -3.3875   -0.3649 C   0  0  0  0  0  0  0  0  0  0  0  0
   -1.6724   -4.0031   -1.1457 C   0  0  0  0  0  0  0  0  0  0  0  0
   -2.5978   -4.9775   -0.5973 C   0  0  0  0  0  0  0  0  0  0  0  0
   -3.4791   -4.6753    0.8719 S   0  0  0  0  0  0  0  0  0  0  0  0
   -4.3302   -6.1791    0.7683 C   0  0  0  0  0  0  0  0  0  0  0  0
   -5.2831   -6.5886    1.8362 C   0  0  0  0  0  0  0  0  0  0  0  0
   -4.5387   -6.9718    3.1168 C   0  0  0  0  0  0  0  0  0  0  0  0
   -3.9405   -6.8660   -0.3417 C   0  0  0  0  0  0  0  0  0  0  0  0
   -4.5543   -8.4065   -0.7816 Cl  0  0  0  0  0  0  0  0  0  0  0  0
   -2.9672   -6.1851   -1.1232 C   0  0  0  0  0  0  0  0  0  0  0  0
   -2.2802   -6.8720   -2.5345 Cl  0  0  0  0  0  0  0  0  0  0  0  0
   -1.7946   -3.5605   -2.4559 C   0  0  0  0  0  0  0  0  0  0  0  0
   -0.9005   -2.6332   -3.0406 C   0  0  0  0  0  0  0  0  0  0  0  0
    0.2115   -2.1602   -2.3110 C   0  0  0  0  0  0  0  0  0  0  0  0
    1.2689   -1.4436   -2.9862 C   0  0  0  0  0  0  0  0  0  0  0  0
    2.1644   -0.1419   -2.2555 S   0  0  0  0  0  0  0  0  0  0  0  0
    3.2225    0.0043   -3.6175 C   0  0  0  0  0  0  0  0  0  0  0  0
    4.3394    0.9853   -3.6634 C   0  0  0  0  0  0  0  0  0  0  0  0
    3.9313    2.2886   -4.3489 C   0  0  0  0  0  0  0  0  0  0  0  0
    2.8794   -0.8977   -4.5805 C   0  0  0  0  0  0  0  0  0  0  0  0
    1.7862   -1.7267   -4.2280 C   0  0  0  0  0  0  0  0  0  0  0  0
    1.3029   -3.0342   -5.2293 Cl  0  0  0  0  0  0  0  0  0  0  0  0
    3.7088   -1.0503   -6.0735 Cl  0  0  0  0  0  0  0  0  0  0  0  0
    0.2300   -2.4681   -0.9516 C   0  0  0  0  0  0  0  0  0  0  0  0
    1.3077   -1.8054    0.2434 S   0  0  0  0  0  0  0  0  0  0  0  0
   -1.3819   -2.1509   -4.2817 C   0  0  0  0  0  0  0  0  0  0  0  0
   -2.5955   -2.6659   -4.6372 C   0  0  0  0  0  0  0  0  0  0  0  0
   -3.1402   -3.8966   -3.5094 S   0  0  0  0  0  0  0  0  0  0  0  0
   -3.5327   -2.0832   -5.5394 C   0  0  0  0  0  0  0  0  0  0  0  0
   -4.8746   -2.3401   -5.5869 C   0  0  0  0  0  0  0  0  0  0  0  0
   -5.6427   -1.2444   -6.0524 C   0  0  0  0  0  0  0  0  0  0  0  0
   -7.0264   -1.0476   -5.8298 C   0  0  0  0  0  0  0  0  0  0  0  0
   -7.8880   -2.1845   -5.6025 C   0  0  0  0  0  0  0  0  0  0  0  0
   -9.1501   -2.2001   -4.4046 S   0  0  0  0  0  0  0  0  0  0  0  0
   -9.6260   -3.8134   -4.8094 C   0  0  0  0  0  0  0  0  0  0  0  0
  -10.7036   -4.5136   -4.0584 C   0  0  0  0  0  0  0  0  0  0  0  0
  -10.1309   -5.2550   -2.8476 C   0  0  0  0  0  0  0  0  0  0  0  0
   -8.8466   -4.3005   -5.8168 C   0  0  0  0  0  0  0  0  0  0  0  0
   -9.0306   -5.8663   -6.4944 Cl  0  0  0  0  0  0  0  0  0  0  0  0
   -7.8646   -3.3834   -6.2714 C   0  0  0  0  0  0  0  0  0  0  0  0
   -6.8254   -3.7412   -7.5883 Cl  0  0  0  0  0  0  0  0  0  0  0  0
   -7.4327    0.2754   -5.6906 C   0  0  0  0  0  0  0  0  0  0  0  0
   -6.5857    1.3682   -6.0012 C   0  0  0  0  0  0  0  0  0  0  0  0
   -5.2819    1.1486   -6.4745 C   0  0  0  0  0  0  0  0  0  0  0  0
   -4.3605    2.2717   -6.6445 C   0  0  0  0  0  0  0  0  0  0  0  0
   -3.8386    2.8852   -8.1765 S   0  0  0  0  0  0  0  0  0  0  0  0
   -2.8884    4.1314   -7.4334 C   0  0  0  0  0  0  0  0  0  0  0  0
   -2.0967    5.0849   -8.2585 C   0  0  0  0  0  0  0  0  0  0  0  0
   -0.9924    4.3630   -9.0316 C   0  0  0  0  0  0  0  0  0  0  0  0
   -2.9746    4.0501   -6.0763 C   0  0  0  0  0  0  0  0  0  0  0  0
   -3.8047    2.9891   -5.6261 C   0  0  0  0  0  0  0  0  0  0  0  0
   -4.0740    2.6218   -3.9728 Cl  0  0  0  0  0  0  0  0  0  0  0  0
   -2.2146    5.1339   -4.9834 Cl  0  0  0  0  0  0  0  0  0  0  0  0
   -4.8173   -0.1527   -6.4101 C   0  0  0  0  0  0  0  0  0  0  0  0
   -3.1249   -0.5627   -6.3202 S   0  0  0  0  0  0  0  0  0  0  0  0
   -7.0447    2.5821   -5.4371 C   0  0  0  0  0  0  0  0  0  0  0  0
   -8.1220    2.4176   -4.6117 C   0  0  0  0  0  0  0  0  0  0  0  0
   -8.8395    0.8174   -4.7988 S   0  0  0  0  0  0  0  0  0  0  0  0
   -8.2399    3.1410   -3.3777 C   0  0  0  0  0  0  0  0  0  0  0  0
   -7.0792    3.7471   -3.0242 O   0  0  0  0  0  0  0  0  0  0  0  0
   -7.0634    3.8914   -1.6781 C   0  0  0  0  0  0  0  0  0  0  0  0
   -8.2823    3.4850   -1.1720 C   0  0  0  0  0  0  0  0  0  0  0  0
   -9.0452    3.0028   -2.2560 C   0  0  0  0  0  0  0  0  0  0  0  0
  -10.4047    2.4053   -2.2057 C   0  0  0  0  0  0  0  0  0  0  0  0
   -5.7427    4.1210   -1.1807 C   0  0  0  0  0  0  0  0  0  0  0  0
   -5.1952    3.6685   -0.0334 C   0  0  0  0  0  0  0  0  0  0  0  0
   -3.7798    3.5170    0.1040 C   0  0  0  0  0  0  0  0  0  0  0  0
   -3.0864    2.8998    1.1106 C   0  0  0  0  0  0  0  0  0  0  0  0
   -1.7025    2.7417    0.8458 C   0  0  0  0  0  0  0  0  0  0  0  0
   -0.7075    2.1264    1.6297 C   0  0  0  0  0  0  0  0  0  0  0  0
   -1.0359    1.3242    2.7973 C   0  0  0  0  0  0  0  0  0  0  0  0
   -2.1996    0.0364    2.6297 S   0  0  0  0  0  0  0  0  0  0  0  0
   -1.9458   -0.5112    4.2499 C   0  0  0  0  0  0  0  0  0  0  0  0
   -2.6969   -1.6568    4.8344 C   0  0  0  0  0  0  0  0  0  0  0  0
   -3.2427   -2.6009    3.7735 C   0  0  0  0  0  0  0  0  0  0  0  0
   -1.0146    0.2675    4.8695 C   0  0  0  0  0  0  0  0  0  0  0  0
   -0.5394    0.0291    6.5014 Cl  0  0  0  0  0  0  0  0  0  0  0  0
   -0.4855    1.2996    4.0484 C   0  0  0  0  0  0  0  0  0  0  0  0
    0.6669    2.4278    4.6251 Cl  0  0  0  0  0  0  0  0  0  0  0  0
    0.5978    2.1897    1.1532 C   0  0  0  0  0  0  0  0  0  0  0  0
    0.9340    2.6990   -0.1257 C   0  0  0  0  0  0  0  0  0  0  0  0
   -0.0814    3.1760   -0.9638 C   0  0  0  0  0  0  0  0  0  0  0  0
    0.1463    3.3667   -2.3936 C   0  0  0  0  0  0  0  0  0  0  0  0
    1.0419    4.6717   -3.0947 S   0  0  0  0  0  0  0  0  0  0  0  0
    0.8569    4.0365   -4.6972 C   0  0  0  0  0  0  0  0  0  0  0  0
    1.3986    4.7426   -5.8926 C   0  0  0  0  0  0  0  0  0  0  0  0
    2.5360    5.6960   -5.5520 C   0  0  0  0  0  0  0  0  0  0  0  0
    0.1404    2.8770   -4.6666 C   0  0  0  0  0  0  0  0  0  0  0  0
   -0.2674    2.4968   -3.3618 C   0  0  0  0  0  0  0  0  0  0  0  0
   -1.1508    1.0603   -3.0353 Cl  0  0  0  0  0  0  0  0  0  0  0  0
   -0.2371    1.9364   -6.0529 Cl  0  0  0  0  0  0  0  0  0  0  0  0
   -1.3552    3.2614   -0.4263 C   0  0  0  0  0  0  0  0  0  0  0  0
   -2.7268    3.9398   -1.2367 S   0  0  0  0  0  0  0  0  0  0  0  0
    2.3075    2.5310   -0.4288 C   0  0  0  0  0  0  0  0  0  0  0  0
    2.9958    1.8935    0.5572 C   0  0  0  0  0  0  0  0  0  0  0  0
    1.9918    1.5165    1.9368 S   0  0  0  0  0  0  0  0  0  0  0  0
    4.3556    1.4618    0.5661 C   0  0  0  0  0  0  0  0  0  0  0  0
    4.8738    0.4514    1.3156 C   0  0  0  0  0  0  0  0  0  0  0  0
    6.2439    0.1995    1.0589 C   0  0  0  0  0  0  0  0  0  0  0  0
    7.0769   -0.7653    1.6500 C   0  0  0  0  0  0  0  0  0  0  0  0
    6.5498   -1.7257    2.6042 C   0  0  0  0  0  0  0  0  0  0  0  0
    7.3124   -1.9924    4.1434 S   0  0  0  0  0  0  0  0  0  0  0  0
    6.1487   -3.1823    4.6060 C   0  0  0  0  0  0  0  0  0  0  0  0
    6.2189   -3.8679    5.9265 C   0  0  0  0  0  0  0  0  0  0  0  0
    5.1586   -3.3332    6.8899 C   0  0  0  0  0  0  0  0  0  0  0  0
    5.2230   -3.3474    3.6190 C   0  0  0  0  0  0  0  0  0  0  0  0
    3.9075   -4.4451    3.7242 Cl  0  0  0  0  0  0  0  0  0  0  0  0
    5.4507   -2.5324    2.4794 C   0  0  0  0  0  0  0  0  0  0  0  0
    4.4912   -2.6500    1.0624 Cl  0  0  0  0  0  0  0  0  0  0  0  0
    8.4122   -0.7625    1.2610 C   0  0  0  0  0  0  0  0  0  0  0  0
    8.9317    0.1209    0.2840 C   0  0  0  0  0  0  0  0  0  0  0  0
    8.0941    1.0749   -0.3153 C   0  0  0  0  0  0  0  0  0  0  0  0
    8.5771    2.0056   -1.3224 C   0  0  0  0  0  0  0  0  0  0  0  0
    7.7775    2.1490   -2.8597 S   0  0  0  0  0  0  0  0  0  0  0  0
    8.8699    3.3757   -3.4019 C   0  0  0  0  0  0  0  0  0  0  0  0
    8.6952    4.0244   -4.7305 C   0  0  0  0  0  0  0  0  0  0  0  0
    7.6739    5.1617   -4.6493 C   0  0  0  0  0  0  0  0  0  0  0  0
    9.7878    3.6547   -2.4340 C   0  0  0  0  0  0  0  0  0  0  0  0
    9.6283    2.8759   -1.2555 C   0  0  0  0  0  0  0  0  0  0  0  0
   10.6181    3.0839    0.1316 Cl  0  0  0  0  0  0  0  0  0  0  0  0
   11.0290    4.8283   -2.6007 Cl  0  0  0  0  0  0  0  0  0  0  0  0
    6.7667    1.0873    0.0891 C   0  0  0  0  0  0  0  0  0  0  0  0
    5.5508    2.1984   -0.4790 S   0  0  0  0  0  0  0  0  0  0  0  0
   10.3039   -0.1492    0.0085 C   0  0  0  0  0  0  0  0  0  0  0  0
   10.7958   -1.1628    0.7493 C   0  0  0  0  0  0  0  0  0  0  0  0
    9.6352   -1.8678    1.8210 S   0  0  0  0  0  0  0  0  0  0  0  0
    2.5632   -1.9399   10.7187 H   0  0  0  0  0  0  0  0  0  0  0  0
    3.4420   -0.4678    8.7647 H   0  0  0  0  0  0  0  0  0  0  0  0
    6.6454    2.9207    4.9789 H   0  0  0  0  0  0  0  0  0  0  0  0
    6.5073    1.7121    3.6891 H   0  0  0  0  0  0  0  0  0  0  0  0
    4.6070    3.0525    2.7045 H   0  0  0  0  0  0  0  0  0  0  0  0
    6.1193    3.9657    2.7652 H   0  0  0  0  0  0  0  0  0  0  0  0
    4.8495    4.2723    3.9537 H   0  0  0  0  0  0  0  0  0  0  0  0
   -2.8813   -8.1788    7.2187 H   0  0  0  0  0  0  0  0  0  0  0  0
   -3.0990   -7.6043    5.5615 H   0  0  0  0  0  0  0  0  0  0  0  0
   -4.3008   -5.5910    6.3992 H   0  0  0  0  0  0  0  0  0  0  0  0
   -5.0937   -7.0759    6.9384 H   0  0  0  0  0  0  0  0  0  0  0  0
   -4.0926   -6.1508    8.0600 H   0  0  0  0  0  0  0  0  0  0  0  0
   -0.0927   -4.2564    3.8280 H   0  0  0  0  0  0  0  0  0  0  0  0
   -1.0015   -4.2310    1.6347 H   0  0  0  0  0  0  0  0  0  0  0  0
   -5.8645   -7.4386    1.4764 H   0  0  0  0  0  0  0  0  0  0  0  0
   -5.9657   -5.7633    2.0500 H   0  0  0  0  0  0  0  0  0  0  0  0
   -3.8727   -7.8099    2.9253 H   0  0  0  0  0  0  0  0  0  0  0  0
   -5.2483   -7.2573    3.8887 H   0  0  0  0  0  0  0  0  0  0  0  0
   -3.9489   -6.1297    3.4726 H   0  0  0  0  0  0  0  0  0  0  0  0
    4.6741    1.1997   -2.6494 H   0  0  0  0  0  0  0  0  0  0  0  0
    5.1704    0.5377   -4.2125 H   0  0  0  0  0  0  0  0  0  0  0  0
    3.1195    2.7641   -3.8053 H   0  0  0  0  0  0  0  0  0  0  0  0
    4.7816    2.9646   -4.3775 H   0  0  0  0  0  0  0  0  0  0  0  0
    3.5990    2.0953   -5.3653 H   0  0  0  0  0  0  0  0  0  0  0  0
   -0.9088   -1.3606   -4.8366 H   0  0  0  0  0  0  0  0  0  0  0  0
   -5.3058   -3.2225   -5.1482 H   0  0  0  0  0  0  0  0  0  0  0  0
  -11.4429   -3.7844   -3.7235 H   0  0  0  0  0  0  0  0  0  0  0  0
  -11.1903   -5.2275   -4.7255 H   0  0  0  0  0  0  0  0  0  0  0  0
   -9.3999   -5.9925   -3.1691 H   0  0  0  0  0  0  0  0  0  0  0  0
  -10.9268   -5.7642   -2.3110 H   0  0  0  0  0  0  0  0  0  0  0  0
   -9.6445   -4.5551   -2.1724 H   0  0  0  0  0  0  0  0  0  0  0  0
   -1.6648    5.8347   -7.5932 H   0  0  0  0  0  0  0  0  0  0  0  0
   -2.7574    5.5930   -8.9651 H   0  0  0  0  0  0  0  0  0  0  0  0
   -0.3877    5.0799   -9.5808 H   0  0  0  0  0  0  0  0  0  0  0  0
   -0.3516    3.8121   -8.3483 H   0  0  0  0  0  0  0  0  0  0  0  0
   -1.4279    3.6598   -9.7372 H   0  0  0  0  0  0  0  0  0  0  0  0
   -6.4939    3.5027   -5.4903 H   0  0  0  0  0  0  0  0  0  0  0  0
   -8.5848    3.5058   -0.1447 H   0  0  0  0  0  0  0  0  0  0  0  0
  -10.8147    2.4845   -1.2028 H   0  0  0  0  0  0  0  0  0  0  0  0
  -10.3611    1.3532   -2.4890 H   0  0  0  0  0  0  0  0  0  0  0  0
  -11.0717    2.9079   -2.9038 H   0  0  0  0  0  0  0  0  0  0  0  0
   -5.0734    4.4857   -1.9518 H   0  0  0  0  0  0  0  0  0  0  0  0
   -5.8067    3.2815    0.7695 H   0  0  0  0  0  0  0  0  0  0  0  0
   -3.5545    2.5616    2.0178 H   0  0  0  0  0  0  0  0  0  0  0  0
   -2.0267   -2.1974    5.5079 H   0  0  0  0  0  0  0  0  0  0  0  0
   -3.5217   -1.2688    5.4410 H   0  0  0  0  0  0  0  0  0  0  0  0
   -2.4342   -2.9794    3.1556 H   0  0  0  0  0  0  0  0  0  0  0  0
   -3.7450   -3.4405    4.2448 H   0  0  0  0  0  0  0  0  0  0  0  0
   -3.9503   -2.0867    3.1279 H   0  0  0  0  0  0  0  0  0  0  0  0
    1.7352    3.9909   -6.6110 H   0  0  0  0  0  0  0  0  0  0  0  0
    0.5851    5.3041   -6.3631 H   0  0  0  0  0  0  0  0  0  0  0  0
    2.8990    6.1816   -6.4538 H   0  0  0  0  0  0  0  0  0  0  0  0
    2.1928    6.4618   -4.8602 H   0  0  0  0  0  0  0  0  0  0  0  0
    3.3597    5.1585   -5.0898 H   0  0  0  0  0  0  0  0  0  0  0  0
    2.7597    2.8550   -1.3481 H   0  0  0  0  0  0  0  0  0  0  0  0
    4.2827   -0.0988    2.0224 H   0  0  0  0  0  0  0  0  0  0  0  0
    6.0576   -4.9386    5.7779 H   0  0  0  0  0  0  0  0  0  0  0  0
    7.2127   -3.7214    6.3513 H   0  0  0  0  0  0  0  0  0  0  0  0
    4.1646   -3.5142    6.4906 H   0  0  0  0  0  0  0  0  0  0  0  0
    5.2412   -3.8313    7.8522 H   0  0  0  0  0  0  0  0  0  0  0  0
    5.2843   -2.2633    7.0378 H   0  0  0  0  0  0  0  0  0  0  0  0
    9.6579    4.4195   -5.0592 H   0  0  0  0  0  0  0  0  0  0  0  0
    8.3551    3.2816   -5.4541 H   0  0  0  0  0  0  0  0  0  0  0  0
    6.7135    4.7831   -4.3071 H   0  0  0  0  0  0  0  0  0  0  0  0
    7.5430    5.6174   -5.6270 H   0  0  0  0  0  0  0  0  0  0  0  0
    8.0127    5.9232   -3.9519 H   0  0  0  0  0  0  0  0  0  0  0  0
   10.8792    0.3903   -0.7206 H   0  0  0  0  0  0  0  0  0  0  0  0
   11.7910   -1.5623    0.7391 H   0  0  0  0  0  0  0  0  0  0  0  0
  1  2  2  0  0  0  0
  2  3  1  0  0  0  0
  3  4  2  0  0  0  0
  4  5  1  0  0  0  0
  5  6  1  0  0  0  0
  6  7  1  0  0  0  0
  7  8  1  0  0  0  0
  8  9  1  0  0  0  0
  7 10  2  0  0  0  0
 10 11  1  0  0  0  0
 10 12  1  0  0  0  0
 12 13  1  0  0  0  0
  4 14  1  0  0  0  0
 14 15  2  0  0  0  0
 15 16  1  0  0  0  0
 16 17  1  0  0  0  0
 17 18  1  0  0  0  0
 18 19  1  0  0  0  0
 19 20  1  0  0  0  0
 20 21  1  0  0  0  0
 19 22  2  0  0  0  0
 22 23  1  0  0  0  0
 23 24  1  0  0  0  0
 22 25  1  0  0  0  0
 16 26  2  0  0  0  0
 26 27  1  0  0  0  0
 15 28  1  0  0  0  0
 28 29  2  0  0  0  0
 29 30  1  0  0  0  0
 29 31  1  0  0  0  0
 31 32  2  0  0  0  0
 32 33  1  0  0  0  0
 33 34  2  0  0  0  0
 34 35  1  0  0  0  0
 35 36  1  0  0  0  0
 36 37  1  0  0  0  0
 37 38  1  0  0  0  0
 38 39  1  0  0  0  0
 37 40  2  0  0  0  0
 40 41  1  0  0  0  0
 40 42  1  0  0  0  0
 42 43  1  0  0  0  0
 34 44  1  0  0  0  0
 44 45  2  0  0  0  0
 45 46  1  0  0  0  0
 46 47  1  0  0  0  0
 47 48  1  0  0  0  0
 48 49  1  0  0  0  0
 49 50  1  0  0  0  0
 50 51  1  0  0  0  0
 49 52  2  0  0  0  0
 52 53  1  0  0  0  0
 53 54  1  0  0  0  0
 52 55  1  0  0  0  0
 46 56  2  0  0  0  0
 56 57  1  0  0  0  0
 45 58  1  0  0  0  0
 58 59  2  0  0  0  0
 59 60  1  0  0  0  0
 59 61  1  0  0  0  0
 61 62  2  0  0  0  0
 62 63  1  0  0  0  0
 63 64  2  0  0  0  0
 64 65  1  0  0  0  0
 65 66  1  0  0  0  0
 66 67  1  0  0  0  0
 67 68  1  0  0  0  0
 68 69  1  0  0  0  0
 67 70  2  0  0  0  0
 70 71  1  0  0  0  0
 70 72  1  0  0  0  0
 72 73  1  0  0  0  0
 64 74  1  0  0  0  0
 74 75  2  0  0  0  0
 75 76  1  0  0  0  0
 76 77  1  0  0  0  0
 77 78  1  0  0  0  0
 78 79  1  0  0  0  0
 79 80  1  0  0  0  0
 80 81  1  0  0  0  0
 79 82  2  0  0  0  0
 82 83  1  0  0  0  0
 83 84  1  0  0  0  0
 82 85  1  0  0  0  0
 76 86  2  0  0  0  0
 86 87  1  0  0  0  0
 75 88  1  0  0  0  0
 88 89  2  0  0  0  0
 89 90  1  0  0  0  0
 89 91  1  0  0  0  0
 91 92  1  0  0  0  0
 92 93  1  0  0  0  0
 93 94  2  0  0  0  0
 94 95  1  0  0  0  0
 95 96  1  0  0  0  0
 93 97  1  0  0  0  0
 97 98  2  0  0  0  0
 98 99  1  0  0  0  0
 99100  2  0  0  0  0
100101  1  0  0  0  0
101102  2  0  0  0  0
102103  1  0  0  0  0
103104  1  0  0  0  0
104105  1  0  0  0  0
105106  1  0  0  0  0
106107  1  0  0  0  0
105108  2  0  0  0  0
108109  1  0  0  0  0
108110  1  0  0  0  0
110111  1  0  0  0  0
102112  1  0  0  0  0
112113  2  0  0  0  0
113114  1  0  0  0  0
114115  1  0  0  0  0
115116  1  0  0  0  0
116117  1  0  0  0  0
117118  1  0  0  0  0
118119  1  0  0  0  0
117120  2  0  0  0  0
120121  1  0  0  0  0
121122  1  0  0  0  0
120123  1  0  0  0  0
114124  2  0  0  0  0
124125  1  0  0  0  0
113126  1  0  0  0  0
126127  2  0  0  0  0
127128  1  0  0  0  0
127129  1  0  0  0  0
129130  2  0  0  0  0
130131  1  0  0  0  0
131132  2  0  0  0  0
132133  1  0  0  0  0
133134  1  0  0  0  0
134135  1  0  0  0  0
135136  1  0  0  0  0
136137  1  0  0  0  0
135138  2  0  0  0  0
138139  1  0  0  0  0
138140  1  0  0  0  0
140141  1  0  0  0  0
132142  1  0  0  0  0
142143  2  0  0  0  0
143144  1  0  0  0  0
144145  1  0  0  0  0
145146  1  0  0  0  0
146147  1  0  0  0  0
147148  1  0  0  0  0
148149  1  0  0  0  0
147150  2  0  0  0  0
150151  1  0  0  0  0
151152  1  0  0  0  0
150153  1  0  0  0  0
144154  2  0  0  0  0
154155  1  0  0  0  0
143156  1  0  0  0  0
156157  2  0  0  0  0
157158  1  0  0  0  0
 27  1  1  0  0  0  0
 57 31  1  0  0  0  0
 87 61  1  0  0  0  0
 95 91  2  0  0  0  0
125 99  1  0  0  0  0
155129  1  0  0  0  0
 26  3  1  0  0  0  0
 56 33  1  0  0  0  0
 86 63  1  0  0  0  0
124101  1  0  0  0  0
154131  1  0  0  0  0
 12  5  2  0  0  0  0
 30 14  1  0  0  0  0
 42 35  2  0  0  0  0
 60 44  1  0  0  0  0
 72 65  2  0  0  0  0
 90 74  1  0  0  0  0
110103  2  0  0  0  0
128112  1  0  0  0  0
140133  2  0  0  0  0
158142  1  0  0  0  0
 23 17  2  0  0  0  0
 53 47  2  0  0  0  0
 83 77  2  0  0  0  0
121115  2  0  0  0  0
151145  2  0  0  0  0
  1159  1  0  0  0  0
  2160  1  0  0  0  0
  8161  1  0  0  0  0
  8162  1  0  0  0  0
  9163  1  0  0  0  0
  9164  1  0  0  0  0
  9165  1  0  0  0  0
 20166  1  0  0  0  0
 20167  1  0  0  0  0
 21168  1  0  0  0  0
 21169  1  0  0  0  0
 21170  1  0  0  0  0
 28171  1  0  0  0  0
 32172  1  0  0  0  0
 38173  1  0  0  0  0
 38174  1  0  0  0  0
 39175  1  0  0  0  0
 39176  1  0  0  0  0
 39177  1  0  0  0  0
 50178  1  0  0  0  0
 50179  1  0  0  0  0
 51180  1  0  0  0  0
 51181  1  0  0  0  0
 51182  1  0  0  0  0
 58183  1  0  0  0  0
 62184  1  0  0  0  0
 68185  1  0  0  0  0
 68186  1  0  0  0  0
 69187  1  0  0  0  0
 69188  1  0  0  0  0
 69189  1  0  0  0  0
 80190  1  0  0  0  0
 80191  1  0  0  0  0
 81192  1  0  0  0  0
 81193  1  0  0  0  0
 81194  1  0  0  0  0
 88195  1  0  0  0  0
 94196  1  0  0  0  0
 96197  1  0  0  0  0
 96198  1  0  0  0  0
 96199  1  0  0  0  0
 97200  1  0  0  0  0
 98201  1  0  0  0  0
100202  1  0  0  0  0
106203  1  0  0  0  0
106204  1  0  0  0  0
107205  1  0  0  0  0
107206  1  0  0  0  0
107207  1  0  0  0  0
118208  1  0  0  0  0
118209  1  0  0  0  0
119210  1  0  0  0  0
119211  1  0  0  0  0
119212  1  0  0  0  0
126213  1  0  0  0  0
130214  1  0  0  0  0
136215  1  0  0  0  0
136216  1  0  0  0  0
137217  1  0  0  0  0
137218  1  0  0  0  0
137219  1  0  0  0  0
148220  1  0  0  0  0
148221  1  0  0  0  0
149222  1  0  0  0  0
149223  1  0  0  0  0
149224  1  0  0  0  0
156225  1  0  0  0  0
157226  1  0  0  0  0
M  END
