
  xtb     03032207203D
 energy: -473.266913550191 gnorm: 0.000457983658 xtb: 6.4.1 (unknown)
229254  0     0  0            999 V2000
    9.0015   18.2430    4.1513 C   0  0  0  0  0  0  0  0  0  0  0  0
    8.4960   17.5208    5.1713 C   0  0  0  0  0  0  0  0  0  0  0  0
    7.5954   16.5045    4.7367 C   0  0  0  0  0  0  0  0  0  0  0  0
    6.8731   15.5889    5.5192 C   0  0  0  0  0  0  0  0  0  0  0  0
    6.9076   15.6412    6.9715 C   0  0  0  0  0  0  0  0  0  0  0  0
    7.2934   14.2381    7.9219 S   0  0  0  0  0  0  0  0  0  0  0  0
    7.1126   15.1011    9.4105 C   0  0  0  0  0  0  0  0  0  0  0  0
    7.3737   14.4427   10.7200 C   0  0  0  0  0  0  0  0  0  0  0  0
    8.8651   14.4760   11.0627 C   0  0  0  0  0  0  0  0  0  0  0  0
    6.7761   16.3997    9.1685 C   0  0  0  0  0  0  0  0  0  0  0  0
    6.5090   17.5652   10.3997 Cl  0  0  0  0  0  0  0  0  0  0  0  0
    6.6543   16.7090    7.7873 C   0  0  0  0  0  0  0  0  0  0  0  0
    6.1572   18.2534    7.2264 Cl  0  0  0  0  0  0  0  0  0  0  0  0
    6.1201   14.6382    4.8427 C   0  0  0  0  0  0  0  0  0  0  0  0
    6.0318   14.5954    3.4305 C   0  0  0  0  0  0  0  0  0  0  0  0
    6.6900   15.5605    2.6488 C   0  0  0  0  0  0  0  0  0  0  0  0
    6.5287   15.5764    1.2055 C   0  0  0  0  0  0  0  0  0  0  0  0
    7.8977   15.6233    0.1341 S   0  0  0  0  0  0  0  0  0  0  0  0
    6.8964   15.5750   -1.2758 C   0  0  0  0  0  0  0  0  0  0  0  0
    7.4844   15.5297   -2.6429 C   0  0  0  0  0  0  0  0  0  0  0  0
    7.7272   14.0850   -3.0866 C   0  0  0  0  0  0  0  0  0  0  0  0
    5.5807   15.5243   -0.9220 C   0  0  0  0  0  0  0  0  0  0  0  0
    5.3669   15.5325    0.4820 C   0  0  0  0  0  0  0  0  0  0  0  0
    3.7910   15.5697    1.1652 Cl  0  0  0  0  0  0  0  0  0  0  0  0
    4.2875   15.4537   -2.0483 Cl  0  0  0  0  0  0  0  0  0  0  0  0
    7.4807   16.4804    3.3260 C   0  0  0  0  0  0  0  0  0  0  0  0
    8.4325   17.7423    2.5960 S   0  0  0  0  0  0  0  0  0  0  0  0
    5.2400   13.5110    2.9847 C   0  0  0  0  0  0  0  0  0  0  0  0
    4.6897   12.7833    3.9992 C   0  0  0  0  0  0  0  0  0  0  0  0
    5.1575   13.3852    5.5747 S   0  0  0  0  0  0  0  0  0  0  0  0
    3.8043   11.6729    3.8540 C   0  0  0  0  0  0  0  0  0  0  0  0
    3.3375   11.1654    2.6761 C   0  0  0  0  0  0  0  0  0  0  0  0
    2.4359   10.0896    2.8413 C   0  0  0  0  0  0  0  0  0  0  0  0
    1.7531    9.3774    1.8385 C   0  0  0  0  0  0  0  0  0  0  0  0
    1.8205    9.7931    0.4495 C   0  0  0  0  0  0  0  0  0  0  0  0
    2.1540    8.6568   -0.8246 S   0  0  0  0  0  0  0  0  0  0  0  0
    2.0719    9.8799   -2.0465 C   0  0  0  0  0  0  0  0  0  0  0  0
    2.2282    9.5355   -3.4861 C   0  0  0  0  0  0  0  0  0  0  0  0
    0.9481    8.9016   -4.0355 C   0  0  0  0  0  0  0  0  0  0  0  0
    1.7903   11.0903   -1.4868 C   0  0  0  0  0  0  0  0  0  0  0  0
    1.6350   12.5493   -2.3775 Cl  0  0  0  0  0  0  0  0  0  0  0  0
    1.6473   11.0470   -0.0735 C   0  0  0  0  0  0  0  0  0  0  0  0
    1.2048   12.4343    0.8374 Cl  0  0  0  0  0  0  0  0  0  0  0  0
    1.0225    8.2710    2.2495 C   0  0  0  0  0  0  0  0  0  0  0  0
    0.8865    7.8978    3.6096 C   0  0  0  0  0  0  0  0  0  0  0  0
    1.4782    8.6800    4.6188 C   0  0  0  0  0  0  0  0  0  0  0  0
    1.2671    8.3776    6.0226 C   0  0  0  0  0  0  0  0  0  0  0  0
    2.5963    8.2627    7.1375 S   0  0  0  0  0  0  0  0  0  0  0  0
    1.5506    7.9064    8.4688 C   0  0  0  0  0  0  0  0  0  0  0  0
    2.0921    7.7249    9.8434 C   0  0  0  0  0  0  0  0  0  0  0  0
    2.3473    9.0786   10.5104 C   0  0  0  0  0  0  0  0  0  0  0  0
    0.2498    7.8952    8.0612 C   0  0  0  0  0  0  0  0  0  0  0  0
    0.0842    8.1558    6.6745 C   0  0  0  0  0  0  0  0  0  0  0  0
   -1.4631    8.2628    5.9388 Cl  0  0  0  0  0  0  0  0  0  0  0  0
   -1.0788    7.5896    9.1035 Cl  0  0  0  0  0  0  0  0  0  0  0  0
    2.2687    9.7442    4.2047 C   0  0  0  0  0  0  0  0  0  0  0  0
    3.1631   10.8205    5.2410 S   0  0  0  0  0  0  0  0  0  0  0  0
    0.1534    6.6942    3.7544 C   0  0  0  0  0  0  0  0  0  0  0  0
   -0.2840    6.1792    2.5707 C   0  0  0  0  0  0  0  0  0  0  0  0
    0.1764    7.1712    1.2009 S   0  0  0  0  0  0  0  0  0  0  0  0
   -0.9926    4.9636    2.3471 C   0  0  0  0  0  0  0  0  0  0  0  0
   -1.2962    4.4040    1.1411 C   0  0  0  0  0  0  0  0  0  0  0  0
   -1.9555    3.1572    1.2470 C   0  0  0  0  0  0  0  0  0  0  0  0
   -2.3298    2.2887    0.2060 C   0  0  0  0  0  0  0  0  0  0  0  0
   -2.2268    2.6991   -1.1819 C   0  0  0  0  0  0  0  0  0  0  0  0
   -1.4724    1.6916   -2.3817 S   0  0  0  0  0  0  0  0  0  0  0  0
   -1.7555    2.8437   -3.6415 C   0  0  0  0  0  0  0  0  0  0  0  0
   -1.3696    2.5526   -5.0493 C   0  0  0  0  0  0  0  0  0  0  0  0
   -2.4006    1.6378   -5.7146 C   0  0  0  0  0  0  0  0  0  0  0  0
   -2.4081    3.9342   -3.1488 C   0  0  0  0  0  0  0  0  0  0  0  0
   -2.8676    5.2868   -4.0996 Cl  0  0  0  0  0  0  0  0  0  0  0  0
   -2.6743    3.8590   -1.7553 C   0  0  0  0  0  0  0  0  0  0  0  0
   -3.5544    5.0759   -0.9238 Cl  0  0  0  0  0  0  0  0  0  0  0  0
   -2.7798    1.0287    0.5768 C   0  0  0  0  0  0  0  0  0  0  0  0
   -2.9524    0.6337    1.9267 C   0  0  0  0  0  0  0  0  0  0  0  0
   -2.6653    1.5378    2.9661 C   0  0  0  0  0  0  0  0  0  0  0  0
   -2.8672    1.1922    4.3626 C   0  0  0  0  0  0  0  0  0  0  0  0
   -2.2068   -0.2623    5.0524 S   0  0  0  0  0  0  0  0  0  0  0  0
   -2.8318    0.1017    6.6235 C   0  0  0  0  0  0  0  0  0  0  0  0
   -2.5664   -0.7855    7.7891 C   0  0  0  0  0  0  0  0  0  0  0  0
   -1.2857   -0.3657    8.5146 C   0  0  0  0  0  0  0  0  0  0  0  0
   -3.5045    1.2869    6.6015 C   0  0  0  0  0  0  0  0  0  0  0  0
   -3.5292    1.9071    5.3237 C   0  0  0  0  0  0  0  0  0  0  0  0
   -4.3879    3.3599    5.0285 Cl  0  0  0  0  0  0  0  0  0  0  0  0
   -4.2666    1.9771    7.9747 Cl  0  0  0  0  0  0  0  0  0  0  0  0
   -2.1444    2.7724    2.5976 C   0  0  0  0  0  0  0  0  0  0  0  0
   -1.5323    3.9813    3.6905 S   0  0  0  0  0  0  0  0  0  0  0  0
   -3.4142   -0.7015    2.0288 C   0  0  0  0  0  0  0  0  0  0  0  0
   -3.5655   -1.3187    0.8226 C   0  0  0  0  0  0  0  0  0  0  0  0
   -3.1996   -0.2542   -0.5205 S   0  0  0  0  0  0  0  0  0  0  0  0
   -3.8890   -2.6832    0.5703 C   0  0  0  0  0  0  0  0  0  0  0  0
   -3.9100   -3.3085   -0.6421 C   0  0  0  0  0  0  0  0  0  0  0  0
   -4.1542   -4.6988   -0.5558 C   0  0  0  0  0  0  0  0  0  0  0  0
   -4.1327   -5.6435   -1.5963 C   0  0  0  0  0  0  0  0  0  0  0  0
   -3.9502   -5.2404   -2.9806 C   0  0  0  0  0  0  0  0  0  0  0  0
   -4.9681   -4.0224   -3.6934 S   0  0  0  0  0  0  0  0  0  0  0  0
   -4.1833   -4.1498   -5.2302 C   0  0  0  0  0  0  0  0  0  0  0  0
   -4.5649   -3.2629   -6.3632 C   0  0  0  0  0  0  0  0  0  0  0  0
   -3.9110   -1.8865   -6.2166 C   0  0  0  0  0  0  0  0  0  0  0  0
   -3.1883   -5.0791   -5.1753 C   0  0  0  0  0  0  0  0  0  0  0  0
   -2.1800   -5.4818   -6.5027 Cl  0  0  0  0  0  0  0  0  0  0  0  0
   -3.0541   -5.7025   -3.9055 C   0  0  0  0  0  0  0  0  0  0  0  0
   -1.8135   -6.8389   -3.5803 Cl  0  0  0  0  0  0  0  0  0  0  0  0
   -4.2772   -6.9760   -1.2327 C   0  0  0  0  0  0  0  0  0  0  0  0
   -4.4518   -7.4020    0.1073 C   0  0  0  0  0  0  0  0  0  0  0  0
   -4.5007   -6.4529    1.1448 C   0  0  0  0  0  0  0  0  0  0  0  0
   -4.6836   -6.8460    2.5319 C   0  0  0  0  0  0  0  0  0  0  0  0
   -3.6528   -8.0260    3.2866 S   0  0  0  0  0  0  0  0  0  0  0  0
   -4.4703   -7.8867    4.8026 C   0  0  0  0  0  0  0  0  0  0  0  0
   -4.0233   -8.6557    5.9961 C   0  0  0  0  0  0  0  0  0  0  0  0
   -3.0327   -7.8402    6.8308 C   0  0  0  0  0  0  0  0  0  0  0  0
   -5.4766   -6.9704    4.7169 C   0  0  0  0  0  0  0  0  0  0  0  0
   -5.6017   -6.3781    3.4324 C   0  0  0  0  0  0  0  0  0  0  0  0
   -6.8417   -5.2591    3.0532 Cl  0  0  0  0  0  0  0  0  0  0  0  0
   -6.5112   -6.5646    6.0235 Cl  0  0  0  0  0  0  0  0  0  0  0  0
   -4.3373   -5.1210    0.7854 C   0  0  0  0  0  0  0  0  0  0  0  0
   -4.2112   -3.7833    1.8917 S   0  0  0  0  0  0  0  0  0  0  0  0
   -4.5542   -8.8121    0.2124 C   0  0  0  0  0  0  0  0  0  0  0  0
   -4.4581   -9.4529   -0.9873 C   0  0  0  0  0  0  0  0  0  0  0  0
   -4.2836   -8.3246   -2.3214 S   0  0  0  0  0  0  0  0  0  0  0  0
   -4.3537  -10.8413   -1.3274 C   0  0  0  0  0  0  0  0  0  0  0  0
   -3.5467  -11.2057   -2.8126 S   0  0  0  0  0  0  0  0  0  0  0  0
   -3.6794  -12.9191   -2.5683 C   0  0  0  0  0  0  0  0  0  0  0  0
   -4.3866  -13.1841   -1.4105 C   0  0  0  0  0  0  0  0  0  0  0  0
   -4.7435  -12.0066   -0.6928 C   0  0  0  0  0  0  0  0  0  0  0  0
   -5.4095  -11.9572    0.6488 C   0  0  0  0  0  0  0  0  0  0  0  0
   -6.4307  -11.0814    0.6708 F   0  0  0  0  0  0  0  0  0  0  0  0
   -5.8946  -13.1112    1.0928 F   0  0  0  0  0  0  0  0  0  0  0  0
   -4.5448  -11.5403    1.6030 F   0  0  0  0  0  0  0  0  0  0  0  0
   -4.8825  -14.5499   -1.0350 C   0  0  0  0  0  0  0  0  0  0  0  0
   -4.3292  -15.0232    0.0926 F   0  0  0  0  0  0  0  0  0  0  0  0
   -4.6458  -15.4707   -1.9798 F   0  0  0  0  0  0  0  0  0  0  0  0
   -6.2144  -14.5652   -0.8676 F   0  0  0  0  0  0  0  0  0  0  0  0
   -2.9629  -13.6926   -3.5376 C   0  0  0  0  0  0  0  0  0  0  0  0
   -2.2955  -14.8510   -3.3684 C   0  0  0  0  0  0  0  0  0  0  0  0
   -1.4291  -15.3816   -4.3751 C   0  0  0  0  0  0  0  0  0  0  0  0
   -1.0191  -14.7879   -5.5368 C   0  0  0  0  0  0  0  0  0  0  0  0
   -0.0800  -15.5494   -6.2673 C   0  0  0  0  0  0  0  0  0  0  0  0
    0.5245  -15.2199   -7.4938 C   0  0  0  0  0  0  0  0  0  0  0  0
    0.2778  -13.9324   -8.1223 C   0  0  0  0  0  0  0  0  0  0  0  0
    0.5160  -12.4541   -7.2329 S   0  0  0  0  0  0  0  0  0  0  0  0
    0.0517  -11.4709   -8.5807 C   0  0  0  0  0  0  0  0  0  0  0  0
    0.0016   -9.9874   -8.4626 C   0  0  0  0  0  0  0  0  0  0  0  0
   -1.0971   -9.5399   -7.4965 C   0  0  0  0  0  0  0  0  0  0  0  0
   -0.2657  -12.2570   -9.6476 C   0  0  0  0  0  0  0  0  0  0  0  0
   -0.7813  -11.6513  -11.1683 Cl  0  0  0  0  0  0  0  0  0  0  0  0
   -0.1332  -13.6507   -9.3948 C   0  0  0  0  0  0  0  0  0  0  0  0
   -0.5446  -14.8367  -10.5605 Cl  0  0  0  0  0  0  0  0  0  0  0  0
    1.3829  -16.1639   -8.0419 C   0  0  0  0  0  0  0  0  0  0  0  0
    1.6640  -17.4031   -7.4138 C   0  0  0  0  0  0  0  0  0  0  0  0
    1.0795  -17.7192   -6.1778 C   0  0  0  0  0  0  0  0  0  0  0  0
    1.3755  -18.9687   -5.4931 C   0  0  0  0  0  0  0  0  0  0  0  0
    1.1138  -20.5076   -6.2584 S   0  0  0  0  0  0  0  0  0  0  0  0
    1.6397  -21.3816   -4.8604 C   0  0  0  0  0  0  0  0  0  0  0  0
    1.7076  -22.8689   -4.8580 C   0  0  0  0  0  0  0  0  0  0  0  0
    3.0588  -23.3583   -5.3848 C   0  0  0  0  0  0  0  0  0  0  0  0
    2.0062  -20.5171   -3.8727 C   0  0  0  0  0  0  0  0  0  0  0  0
    1.8505  -19.1490   -4.2242 C   0  0  0  0  0  0  0  0  0  0  0  0
    2.2984  -17.8720   -3.1731 Cl  0  0  0  0  0  0  0  0  0  0  0  0
    2.5972  -21.0120   -2.3398 Cl  0  0  0  0  0  0  0  0  0  0  0  0
    0.2124  -16.7810   -5.6300 C   0  0  0  0  0  0  0  0  0  0  0  0
   -0.6707  -16.9419   -4.1411 S   0  0  0  0  0  0  0  0  0  0  0  0
    2.6157  -18.1608   -8.1563 C   0  0  0  0  0  0  0  0  0  0  0  0
    3.0317  -17.5291   -9.2731 C   0  0  0  0  0  0  0  0  0  0  0  0
    2.3024  -15.9805   -9.5080 S   0  0  0  0  0  0  0  0  0  0  0  0
    9.6948   19.0596    4.2029 H   0  0  0  0  0  0  0  0  0  0  0  0
    8.7540   17.6822    6.2014 H   0  0  0  0  0  0  0  0  0  0  0  0
    6.8091   14.9662   11.4937 H   0  0  0  0  0  0  0  0  0  0  0  0
    7.0339   13.4066   10.6773 H   0  0  0  0  0  0  0  0  0  0  0  0
    9.2151   15.5034   11.1229 H   0  0  0  0  0  0  0  0  0  0  0  0
    9.0388   13.9923   12.0200 H   0  0  0  0  0  0  0  0  0  0  0  0
    9.4388   13.9566   10.2988 H   0  0  0  0  0  0  0  0  0  0  0  0
    6.7943   16.0122   -3.3378 H   0  0  0  0  0  0  0  0  0  0  0  0
    8.4283   16.0767   -2.6484 H   0  0  0  0  0  0  0  0  0  0  0  0
    6.7909   13.5330   -3.0989 H   0  0  0  0  0  0  0  0  0  0  0  0
    8.1549   14.0683   -4.0854 H   0  0  0  0  0  0  0  0  0  0  0  0
    8.4141   13.5908   -2.4036 H   0  0  0  0  0  0  0  0  0  0  0  0
    5.0975   13.2746    1.9479 H   0  0  0  0  0  0  0  0  0  0  0  0
    3.6406   11.5358    1.7158 H   0  0  0  0  0  0  0  0  0  0  0  0
    3.0579    8.8359   -3.6052 H   0  0  0  0  0  0  0  0  0  0  0  0
    2.4558   10.4474   -4.0406 H   0  0  0  0  0  0  0  0  0  0  0  0
    0.7116    7.9932   -3.4862 H   0  0  0  0  0  0  0  0  0  0  0  0
    1.0750    8.6529   -5.0857 H   0  0  0  0  0  0  0  0  0  0  0  0
    0.1140    9.5921   -3.9394 H   0  0  0  0  0  0  0  0  0  0  0  0
    3.0270    7.1637    9.7940 H   0  0  0  0  0  0  0  0  0  0  0  0
    1.3710    7.1550   10.4317 H   0  0  0  0  0  0  0  0  0  0  0  0
    3.0606    9.6568    9.9278 H   0  0  0  0  0  0  0  0  0  0  0  0
    1.4210    9.6425   10.5845 H   0  0  0  0  0  0  0  0  0  0  0  0
    2.7473    8.9326   11.5102 H   0  0  0  0  0  0  0  0  0  0  0  0
   -0.0183    6.2051    4.6960 H   0  0  0  0  0  0  0  0  0  0  0  0
   -1.0146    4.8581    0.2087 H   0  0  0  0  0  0  0  0  0  0  0  0
   -0.3920    2.0677   -5.0659 H   0  0  0  0  0  0  0  0  0  0  0  0
   -1.3039    3.4944   -5.5965 H   0  0  0  0  0  0  0  0  0  0  0  0
   -2.1072    1.4255   -6.7390 H   0  0  0  0  0  0  0  0  0  0  0  0
   -3.3774    2.1145   -5.7232 H   0  0  0  0  0  0  0  0  0  0  0  0
   -2.4761    0.6999   -5.1703 H   0  0  0  0  0  0  0  0  0  0  0  0
   -2.4705   -1.8165    7.4450 H   0  0  0  0  0  0  0  0  0  0  0  0
   -3.4115   -0.7217    8.4774 H   0  0  0  0  0  0  0  0  0  0  0  0
   -1.3736    0.6573    8.8711 H   0  0  0  0  0  0  0  0  0  0  0  0
   -1.1088   -1.0176    9.3658 H   0  0  0  0  0  0  0  0  0  0  0  0
   -0.4328   -0.4279    7.8429 H   0  0  0  0  0  0  0  0  0  0  0  0
   -3.6076   -1.2021    2.9600 H   0  0  0  0  0  0  0  0  0  0  0  0
   -3.7214   -2.7872   -1.5629 H   0  0  0  0  0  0  0  0  0  0  0  0
   -4.2423   -3.7266   -7.2969 H   0  0  0  0  0  0  0  0  0  0  0  0
   -5.6498   -3.1474   -6.3857 H   0  0  0  0  0  0  0  0  0  0  0  0
   -2.8281   -1.9828   -6.2099 H   0  0  0  0  0  0  0  0  0  0  0  0
   -4.1989   -1.2452   -7.0449 H   0  0  0  0  0  0  0  0  0  0  0  0
   -4.2262   -1.4184   -5.2869 H   0  0  0  0  0  0  0  0  0  0  0  0
   -3.5516   -9.5838    5.6710 H   0  0  0  0  0  0  0  0  0  0  0  0
   -4.8960   -8.8999    6.6048 H   0  0  0  0  0  0  0  0  0  0  0  0
   -2.7117   -8.4155    7.6947 H   0  0  0  0  0  0  0  0  0  0  0  0
   -2.1587   -7.5844    6.2367 H   0  0  0  0  0  0  0  0  0  0  0  0
   -3.4993   -6.9216    7.1767 H   0  0  0  0  0  0  0  0  0  0  0  0
   -4.6534   -9.3088    1.1567 H   0  0  0  0  0  0  0  0  0  0  0  0
   -2.8413  -13.1681   -4.4760 H   0  0  0  0  0  0  0  0  0  0  0  0
   -2.3483  -15.4051   -2.4438 H   0  0  0  0  0  0  0  0  0  0  0  0
   -1.3635  -13.8257   -5.8645 H   0  0  0  0  0  0  0  0  0  0  0  0
    0.9655   -9.6192   -8.1033 H   0  0  0  0  0  0  0  0  0  0  0  0
   -0.1810   -9.5685   -9.4533 H   0  0  0  0  0  0  0  0  0  0  0  0
   -2.0691   -9.8831   -7.8422 H   0  0  0  0  0  0  0  0  0  0  0  0
   -1.1162   -8.4556   -7.4297 H   0  0  0  0  0  0  0  0  0  0  0  0
   -0.9163   -9.9454   -6.5036 H   0  0  0  0  0  0  0  0  0  0  0  0
    1.5655  -23.2237   -3.8357 H   0  0  0  0  0  0  0  0  0  0  0  0
    0.9074  -23.2686   -5.4828 H   0  0  0  0  0  0  0  0  0  0  0  0
    3.2112  -23.0204   -6.4071 H   0  0  0  0  0  0  0  0  0  0  0  0
    3.0936  -24.4442   -5.3680 H   0  0  0  0  0  0  0  0  0  0  0  0
    3.8661  -22.9740   -4.7667 H   0  0  0  0  0  0  0  0  0  0  0  0
    2.9684  -19.1290   -7.8527 H   0  0  0  0  0  0  0  0  0  0  0  0
    3.7394  -17.8769  -10.0001 H   0  0  0  0  0  0  0  0  0  0  0  0
  1  2  2  0  0  0  0
  2  3  1  0  0  0  0
  3  4  2  0  0  0  0
  4  5  1  0  0  0  0
  5  6  1  0  0  0  0
  6  7  1  0  0  0  0
  7  8  1  0  0  0  0
  8  9  1  0  0  0  0
  7 10  2  0  0  0  0
 10 11  1  0  0  0  0
 10 12  1  0  0  0  0
 12 13  1  0  0  0  0
  4 14  1  0  0  0  0
 14 15  2  0  0  0  0
 15 16  1  0  0  0  0
 16 17  1  0  0  0  0
 17 18  1  0  0  0  0
 18 19  1  0  0  0  0
 19 20  1  0  0  0  0
 20 21  1  0  0  0  0
 19 22  2  0  0  0  0
 22 23  1  0  0  0  0
 23 24  1  0  0  0  0
 22 25  1  0  0  0  0
 16 26  2  0  0  0  0
 26 27  1  0  0  0  0
 15 28  1  0  0  0  0
 28 29  2  0  0  0  0
 29 30  1  0  0  0  0
 29 31  1  0  0  0  0
 31 32  2  0  0  0  0
 32 33  1  0  0  0  0
 33 34  2  0  0  0  0
 34 35  1  0  0  0  0
 35 36  1  0  0  0  0
 36 37  1  0  0  0  0
 37 38  1  0  0  0  0
 38 39  1  0  0  0  0
 37 40  2  0  0  0  0
 40 41  1  0  0  0  0
 40 42  1  0  0  0  0
 42 43  1  0  0  0  0
 34 44  1  0  0  0  0
 44 45  2  0  0  0  0
 45 46  1  0  0  0  0
 46 47  1  0  0  0  0
 47 48  1  0  0  0  0
 48 49  1  0  0  0  0
 49 50  1  0  0  0  0
 50 51  1  0  0  0  0
 49 52  2  0  0  0  0
 52 53  1  0  0  0  0
 53 54  1  0  0  0  0
 52 55  1  0  0  0  0
 46 56  2  0  0  0  0
 56 57  1  0  0  0  0
 45 58  1  0  0  0  0
 58 59  2  0  0  0  0
 59 60  1  0  0  0  0
 59 61  1  0  0  0  0
 61 62  2  0  0  0  0
 62 63  1  0  0  0  0
 63 64  2  0  0  0  0
 64 65  1  0  0  0  0
 65 66  1  0  0  0  0
 66 67  1  0  0  0  0
 67 68  1  0  0  0  0
 68 69  1  0  0  0  0
 67 70  2  0  0  0  0
 70 71  1  0  0  0  0
 70 72  1  0  0  0  0
 72 73  1  0  0  0  0
 64 74  1  0  0  0  0
 74 75  2  0  0  0  0
 75 76  1  0  0  0  0
 76 77  1  0  0  0  0
 77 78  1  0  0  0  0
 78 79  1  0  0  0  0
 79 80  1  0  0  0  0
 80 81  1  0  0  0  0
 79 82  2  0  0  0  0
 82 83  1  0  0  0  0
 83 84  1  0  0  0  0
 82 85  1  0  0  0  0
 76 86  2  0  0  0  0
 86 87  1  0  0  0  0
 75 88  1  0  0  0  0
 88 89  2  0  0  0  0
 89 90  1  0  0  0  0
 89 91  1  0  0  0  0
 91 92  2  0  0  0  0
 92 93  1  0  0  0  0
 93 94  2  0  0  0  0
 94 95  1  0  0  0  0
 95 96  1  0  0  0  0
 96 97  1  0  0  0  0
 97 98  1  0  0  0  0
 98 99  1  0  0  0  0
 97100  2  0  0  0  0
100101  1  0  0  0  0
100102  1  0  0  0  0
102103  1  0  0  0  0
 94104  1  0  0  0  0
104105  2  0  0  0  0
105106  1  0  0  0  0
106107  1  0  0  0  0
107108  1  0  0  0  0
108109  1  0  0  0  0
109110  1  0  0  0  0
110111  1  0  0  0  0
109112  2  0  0  0  0
112113  1  0  0  0  0
113114  1  0  0  0  0
112115  1  0  0  0  0
106116  2  0  0  0  0
116117  1  0  0  0  0
105118  1  0  0  0  0
118119  2  0  0  0  0
119120  1  0  0  0  0
119121  1  0  0  0  0
121122  1  0  0  0  0
122123  1  0  0  0  0
123124  2  0  0  0  0
124125  1  0  0  0  0
125126  1  0  0  0  0
126127  1  0  0  0  0
126128  1  0  0  0  0
126129  1  0  0  0  0
124130  1  0  0  0  0
130131  1  0  0  0  0
130132  1  0  0  0  0
130133  1  0  0  0  0
123134  1  0  0  0  0
134135  2  0  0  0  0
135136  1  0  0  0  0
136137  2  0  0  0  0
137138  1  0  0  0  0
138139  2  0  0  0  0
139140  1  0  0  0  0
140141  1  0  0  0  0
141142  1  0  0  0  0
142143  1  0  0  0  0
143144  1  0  0  0  0
142145  2  0  0  0  0
145146  1  0  0  0  0
145147  1  0  0  0  0
147148  1  0  0  0  0
139149  1  0  0  0  0
149150  2  0  0  0  0
150151  1  0  0  0  0
151152  1  0  0  0  0
152153  1  0  0  0  0
153154  1  0  0  0  0
154155  1  0  0  0  0
155156  1  0  0  0  0
154157  2  0  0  0  0
157158  1  0  0  0  0
158159  1  0  0  0  0
157160  1  0  0  0  0
151161  2  0  0  0  0
161162  1  0  0  0  0
150163  1  0  0  0  0
163164  2  0  0  0  0
164165  1  0  0  0  0
 27  1  1  0  0  0  0
 57 31  1  0  0  0  0
 87 61  1  0  0  0  0
117 91  1  0  0  0  0
125121  2  0  0  0  0
162136  1  0  0  0  0
 26  3  1  0  0  0  0
 56 33  1  0  0  0  0
 86 63  1  0  0  0  0
116 93  1  0  0  0  0
161138  1  0  0  0  0
 12  5  2  0  0  0  0
 30 14  1  0  0  0  0
 42 35  2  0  0  0  0
 60 44  1  0  0  0  0
 72 65  2  0  0  0  0
 90 74  1  0  0  0  0
102 95  2  0  0  0  0
120104  1  0  0  0  0
147140  2  0  0  0  0
165149  1  0  0  0  0
 23 17  2  0  0  0  0
 53 47  2  0  0  0  0
 83 77  2  0  0  0  0
113107  2  0  0  0  0
158152  2  0  0  0  0
  1166  1  0  0  0  0
  2167  1  0  0  0  0
  8168  1  0  0  0  0
  8169  1  0  0  0  0
  9170  1  0  0  0  0
  9171  1  0  0  0  0
  9172  1  0  0  0  0
 20173  1  0  0  0  0
 20174  1  0  0  0  0
 21175  1  0  0  0  0
 21176  1  0  0  0  0
 21177  1  0  0  0  0
 28178  1  0  0  0  0
 32179  1  0  0  0  0
 38180  1  0  0  0  0
 38181  1  0  0  0  0
 39182  1  0  0  0  0
 39183  1  0  0  0  0
 39184  1  0  0  0  0
 50185  1  0  0  0  0
 50186  1  0  0  0  0
 51187  1  0  0  0  0
 51188  1  0  0  0  0
 51189  1  0  0  0  0
 58190  1  0  0  0  0
 62191  1  0  0  0  0
 68192  1  0  0  0  0
 68193  1  0  0  0  0
 69194  1  0  0  0  0
 69195  1  0  0  0  0
 69196  1  0  0  0  0
 80197  1  0  0  0  0
 80198  1  0  0  0  0
 81199  1  0  0  0  0
 81200  1  0  0  0  0
 81201  1  0  0  0  0
 88202  1  0  0  0  0
 92203  1  0  0  0  0
 98204  1  0  0  0  0
 98205  1  0  0  0  0
 99206  1  0  0  0  0
 99207  1  0  0  0  0
 99208  1  0  0  0  0
110209  1  0  0  0  0
110210  1  0  0  0  0
111211  1  0  0  0  0
111212  1  0  0  0  0
111213  1  0  0  0  0
118214  1  0  0  0  0
134215  1  0  0  0  0
135216  1  0  0  0  0
137217  1  0  0  0  0
143218  1  0  0  0  0
143219  1  0  0  0  0
144220  1  0  0  0  0
144221  1  0  0  0  0
144222  1  0  0  0  0
155223  1  0  0  0  0
155224  1  0  0  0  0
156225  1  0  0  0  0
156226  1  0  0  0  0
156227  1  0  0  0  0
163228  1  0  0  0  0
164229  1  0  0  0  0
M  END
