236

C          4.19140      -13.13720       -0.17270
C          4.64890      -11.91230        0.15650
C          3.60580      -10.94990        0.30190
C          3.72470       -9.58300        0.58940
C          5.02000       -8.94510        0.85960
C          5.40840       -7.80100        0.16510
C          6.60510       -7.18030        0.45280
C          7.45650       -7.67070        1.44020
S          8.97930       -6.81160        1.71410
C          9.09510       -6.73380        3.54060
C          7.90240       -6.02500        4.15050
C          7.06790       -8.82960        2.10550
F          7.85890       -9.38390        3.05010
C          5.86870       -9.45740        1.83490
C          2.54760       -8.84870        0.62080
C          1.27550       -9.42430        0.38970
C          1.15630      -10.78700        0.06670
C         -0.15290      -11.35740       -0.26450
C         -0.61710      -12.52920        0.32370
C         -1.87200      -13.02880        0.03020
C         -2.70410      -12.38120       -0.87670
S         -4.34020      -12.86030       -1.31150
C         -4.53160      -14.52800       -0.59860
C         -3.74440      -15.57530       -1.36300
C         -2.21180      -11.22050       -1.47840
C         -0.97180      -10.70490       -1.18740
F         -2.98440      -10.57360       -2.37700
C          2.33230      -11.52170        0.05160
S          2.47100      -13.21740       -0.33310
C          0.23560       -8.48220        0.57360
C          0.68220       -7.22770        0.87350
S          2.42550       -7.15010        0.99110
C         -0.18890       -6.11290        1.10800
S         -1.69790       -6.43400        1.89440
C         -2.22010       -4.79020        1.73090
C         -1.23870       -4.03020        1.13420
C         -0.08520       -4.77960        0.77100
C          1.14000       -4.25420        0.08490
F          1.50010       -5.03000       -0.95310
F          1.02030       -3.02220       -0.40780
F          2.19930       -4.21680        0.91630
C         -1.40220       -2.57160        0.82660
F         -1.37630       -2.32390       -0.49200
F         -0.44710       -1.81730        1.38920
F         -2.56760       -2.06920        1.25780
C         -3.46800       -4.35860        2.32430
C         -4.69650       -4.88550        2.18650
C         -5.14780       -5.91450        1.29260
S         -4.14310       -6.52320        0.01410
C         -5.39840       -7.53370       -0.62530
C         -6.52720       -7.43340        0.15630
C         -6.40210       -6.49470        1.22080
C         -7.52790       -6.25900        2.18850
F         -7.57860       -7.22970        3.12110
F         -8.72100       -6.22560        1.59130
F         -7.44300       -5.10910        2.87060
C         -7.80060       -8.15960       -0.16850
F         -7.61200       -9.19860       -0.99260
F         -8.40860       -8.66300        0.91190
F         -8.68750       -7.35840       -0.78670
C         -5.13070       -8.34490       -1.79680
C         -4.57500       -7.86930       -2.92400
C         -4.31100       -6.46950       -3.12560
C         -5.03840       -5.43230       -2.62480
C         -4.41450       -4.17030       -2.76790
C         -4.80340       -2.96930       -2.15150
C         -6.03470       -2.92050       -1.35240
C         -6.01780       -2.53360       -0.01300
C         -7.17670       -2.54810        0.72960
C         -8.40790       -2.92400        0.18060
S         -9.76560       -2.83080        1.29670
C        -11.27740       -3.39600        0.43460
C        -11.37320       -4.90470        0.33230
C         -8.40700       -3.28880       -1.16310
F         -9.54210       -3.64120       -1.80750
C         -7.24750       -3.30220       -1.91340
C         -3.93540       -1.89960       -2.28760
C         -2.74380       -1.97790       -3.05330
C         -2.34170       -3.18680       -3.64680
C         -1.06200       -3.27560       -4.35810
C          0.10490       -2.78660       -3.77370
C          1.30170       -2.79120       -4.46020
C          1.37490       -3.27490       -5.76230
S          2.83170       -3.27480       -6.75190
C          3.87280       -1.97360       -5.99860
C          3.26560       -0.59040       -6.12710
C          0.21100       -3.81470       -6.31260
C         -0.98900       -3.82460       -5.63610
F          0.25000       -4.32740       -7.55860
C         -3.18990       -4.26840       -3.47310
S         -2.85930       -5.91890       -3.94040
C         -2.05010       -0.74630       -3.06470
C         -2.63000        0.21910       -2.29690
S         -4.12790       -0.32250       -1.56670
C         -2.06210        1.49500       -2.01200
C         -2.51930        2.49000       -1.20130
C         -1.61520        3.57750       -1.07350
C         -1.74210        4.73030       -0.27990
C         -2.90110        4.94530        0.59500
C         -3.60240        6.14950        0.57250
C         -4.66820        6.35650        1.42090
C         -5.08270        5.37610        2.32100
S         -6.48860        5.75270        3.32490
C         -6.11440        4.98600        4.94510
C         -4.81970        5.50800        5.53480
C         -4.38910        4.16960        2.31430
F         -4.74630        3.15650        3.13490
C         -3.30970        3.95420        1.48140
C         -0.69820        5.64290       -0.33330
C          0.46850        5.44290       -1.11200
C          0.60720        4.28270       -1.89080
C          1.83190        3.99790       -2.64750
C          3.08280        4.10140       -2.04220
C          4.23860        3.81030       -2.73840
C          4.18810        3.40900       -4.06860
S          5.60590        2.99560       -5.03550
C          6.90990        4.07060       -4.33650
C          6.58010        5.54220       -4.48730
C          2.92950        3.28990       -4.65720
C          1.76850        3.57790       -3.97410
F          2.83930        2.88840       -5.93950
C         -0.45150        3.38870       -1.86200
S         -0.49150        1.86340       -2.69890
C          1.39140        6.50650       -0.96650
C          0.98900        7.46540       -0.08320
S         -0.59000        7.12030        0.59050
C          1.73890        8.61120        0.32420
C          3.03180        8.89260       -0.00810
C          3.53080       10.07440        0.59360
C          4.80820       10.63880        0.44920
C          5.85530        9.95140       -0.31640
C          6.15070        8.61450       -0.06030
C          7.12950        7.94780       -0.77070
C          7.85470        8.59810       -1.76190
S          9.10280        7.85410       -2.76310
C          9.60610        6.37270       -1.81760
C         10.32690        6.72890       -0.53210
C          7.54900        9.93730       -2.00880
F          8.22430       10.59360       -2.97150
C          6.57660       10.61410       -1.30630
C          5.02730       11.84850        1.09190
C          4.04580       12.49300        1.88420
C          2.77530       11.91940        2.04160
C          1.72850       12.55880        2.84820
C          1.05000       11.84320        3.82970
C          0.05220       12.43030        4.58290
C         -0.31450       13.75430        4.37080
S         -1.55930       14.62600        5.26110
C         -2.51110       13.31230        6.09930
C         -3.32160       12.47620        5.12730
C          0.37970       14.46210        3.38730
C          1.38220       13.89190        2.63600
F          0.05760       15.75120        3.15820
C          2.55220       10.71350        1.39270
S          1.05710        9.81300        1.39940
C          4.55810       13.68120        2.48650
C          5.84300       13.92450        2.16000
S          6.52900       12.73680        1.10460
H          4.76180      -14.03000       -0.33910
H          5.69020      -11.67680        0.27790
H          4.77190       -7.40190       -0.60930
H          6.90250       -6.29320       -0.08360
H          9.21680       -7.74120        3.93220
H         10.01480       -6.17400        3.70970
H          7.78820       -5.03150        3.72200
H          6.98510       -6.58370        3.97270
H          8.04360       -5.92860        5.22520
H          5.60160      -10.33720        2.40000
H         -0.00170      -13.04540        1.04420
H         -2.20040      -13.92600        0.52830
H         -5.60260      -14.71560       -0.67590
H         -4.26300      -14.48740        0.45620
H         -3.91210      -16.55650       -0.92340
H         -2.67790      -15.36110       -1.33970
H         -4.06520      -15.60080       -2.40170
H         -0.63830       -9.81580       -1.69920
H         -0.80930       -8.71840        0.48000
H         -3.37660       -3.51020        2.99010
H         -5.46750       -4.43310        2.78830
H         -5.36630       -9.39650       -1.72580
H         -4.29460       -8.55850       -3.70600
H         -5.99190       -5.56360       -2.14550
H         -5.08950       -2.23530        0.44870
H         -7.15990       -2.25700        1.76850
H        -11.32730       -2.90870       -0.53580
H        -12.07270       -2.99990        1.06810
H        -10.58430       -5.31060       -0.29430
H        -11.29430       -5.35900        1.31660
H        -12.33180       -5.17660       -0.10440
H         -7.31360       -3.58620       -2.95270
H          0.07670       -2.41330       -2.76220
H          2.18360       -2.41140       -3.97060
H          4.07800       -2.24390       -4.96340
H          4.80150       -2.04230       -6.56510
H          2.33190       -0.51640       -5.57350
H          3.06460       -0.36040       -7.17040
H          3.95790        0.15500       -5.74060
H         -1.86350       -4.22600       -6.12400
H         -1.14000       -0.58010       -3.61160
H         -3.47530        2.44240       -0.71130
H         -3.31550        6.92400       -0.12170
H         -5.20640        7.29120        1.40230
H         -6.96920        5.27340        5.55750
H         -6.10640        3.90430        4.83380
H         -3.96880        5.22210        4.91940
H         -4.84350        6.59340        5.60760
H         -4.67780        5.09270        6.53060
H         -2.78850        3.01140        1.54320
H          3.14880        4.38140       -1.00160
H          5.18890        3.88230       -2.23330
H          7.08270        3.78510       -3.29900
H          7.79130        3.80660       -4.92040
H          7.42070        6.15000       -4.15880
H          6.37610        5.77530       -5.52960
H          5.70490        5.80980       -3.89780
H          0.82550        3.49420       -4.49020
H          2.31450        6.56080       -1.51280
H          3.61530        8.28440       -0.67390
H          5.61820        8.09340        0.72120
H          7.32170        6.91100       -0.54560
H         10.27160        5.85020       -2.50480
H          8.72960        5.74920       -1.64430
H         11.20490        7.33210       -0.74990
H          9.67950        7.29420        0.13520
H         10.64550        5.82150       -0.02250
H          6.37820       11.64620       -1.54700
H          1.31960       10.81650        4.02430
H         -0.43380       11.84440        5.34560
H         -1.82730       12.71200        6.69820
H         -3.16500       13.86600        6.77320
H         -3.90010       11.73280        5.67240
H         -2.67630       11.96260        4.41770
H         -4.00730       13.10990        4.56990
H          1.86650       14.47940        1.87180
H          3.98280       14.30440        3.14650
H          6.45920       14.74410        2.47420
