
  xtb     03032202243D
 energy: -444.450325835698 gnorm: 0.000313664367 xtb: 6.4.1 (unknown)
221246  0     0  0            999 V2000
   13.5709   15.6715    1.9822 C   0  0  0  0  0  0  0  0  0  0  0  0
   12.3910   15.9935    1.4154 C   0  0  0  0  0  0  0  0  0  0  0  0
   11.5596   14.8582    1.1853 C   0  0  0  0  0  0  0  0  0  0  0  0
   10.2827   14.8169    0.6036 C   0  0  0  0  0  0  0  0  0  0  0  0
    9.5774   16.0335    0.2357 C   0  0  0  0  0  0  0  0  0  0  0  0
    8.9237   16.2607   -1.3585 S   0  0  0  0  0  0  0  0  0  0  0  0
    8.2889   17.8196   -0.9598 C   0  0  0  0  0  0  0  0  0  0  0  0
    7.5936   18.6540   -1.9780 C   0  0  0  0  0  0  0  0  0  0  0  0
    8.5951   19.4910   -2.7774 C   0  0  0  0  0  0  0  0  0  0  0  0
    8.5785   18.1336    0.3348 C   0  0  0  0  0  0  0  0  0  0  0  0
    8.1081   19.6001    1.0922 Cl  0  0  0  0  0  0  0  0  0  0  0  0
    9.3051   17.1219    1.0174 C   0  0  0  0  0  0  0  0  0  0  0  0
    9.7168   17.2405    2.6798 Cl  0  0  0  0  0  0  0  0  0  0  0  0
    9.7155   13.5633    0.4148 C   0  0  0  0  0  0  0  0  0  0  0  0
   10.3532   12.3625    0.8106 C   0  0  0  0  0  0  0  0  0  0  0  0
   11.6213   12.4040    1.4141 C   0  0  0  0  0  0  0  0  0  0  0  0
   12.2948   11.1901    1.8447 C   0  0  0  0  0  0  0  0  0  0  0  0
   12.9043   11.0429    3.4673 S   0  0  0  0  0  0  0  0  0  0  0  0
   13.4887    9.4400    3.1882 C   0  0  0  0  0  0  0  0  0  0  0  0
   14.1276    8.6471    4.2744 C   0  0  0  0  0  0  0  0  0  0  0  0
   13.0806    7.8550    5.0618 C   0  0  0  0  0  0  0  0  0  0  0  0
   13.2155    9.0526    1.9102 C   0  0  0  0  0  0  0  0  0  0  0  0
   12.5421   10.0411    1.1444 C   0  0  0  0  0  0  0  0  0  0  0  0
   12.1672    9.8144   -0.5166 Cl  0  0  0  0  0  0  0  0  0  0  0  0
   13.6508    7.5232    1.2686 Cl  0  0  0  0  0  0  0  0  0  0  0  0
   12.1907   13.6594    1.5932 C   0  0  0  0  0  0  0  0  0  0  0  0
   13.7639   13.9765    2.2694 S   0  0  0  0  0  0  0  0  0  0  0  0
    9.5389   11.2300    0.5630 C   0  0  0  0  0  0  0  0  0  0  0  0
    8.3425   11.5359   -0.0136 C   0  0  0  0  0  0  0  0  0  0  0  0
    8.1382   13.2554   -0.2559 S   0  0  0  0  0  0  0  0  0  0  0  0
    7.3415   10.5893   -0.4002 C   0  0  0  0  0  0  0  0  0  0  0  0
    7.5701    9.2833   -0.7157 C   0  0  0  0  0  0  0  0  0  0  0  0
    6.3897    8.5506   -0.9865 C   0  0  0  0  0  0  0  0  0  0  0  0
    6.2696    7.1861   -1.3072 C   0  0  0  0  0  0  0  0  0  0  0  0
    7.4407    6.3379   -1.4512 C   0  0  0  0  0  0  0  0  0  0  0  0
    8.6863    6.2891   -0.2357 S   0  0  0  0  0  0  0  0  0  0  0  0
    9.6228    5.1361   -1.1197 C   0  0  0  0  0  0  0  0  0  0  0  0
   10.9587    4.6889   -0.6389 C   0  0  0  0  0  0  0  0  0  0  0  0
   12.0661    5.5376   -1.2689 C   0  0  0  0  0  0  0  0  0  0  0  0
    8.9975    4.8187   -2.2882 C   0  0  0  0  0  0  0  0  0  0  0  0
    9.6274    3.7087   -3.4348 Cl  0  0  0  0  0  0  0  0  0  0  0  0
    7.7617    5.4930   -2.4792 C   0  0  0  0  0  0  0  0  0  0  0  0
    6.8461    5.3180   -3.9167 Cl  0  0  0  0  0  0  0  0  0  0  0  0
    4.9809    6.6916   -1.4638 C   0  0  0  0  0  0  0  0  0  0  0  0
    3.8224    7.5016   -1.3476 C   0  0  0  0  0  0  0  0  0  0  0  0
    3.9477    8.8698   -1.0533 C   0  0  0  0  0  0  0  0  0  0  0  0
    2.7782    9.7182   -0.8918 C   0  0  0  0  0  0  0  0  0  0  0  0
    2.6040   11.1946   -1.7924 S   0  0  0  0  0  0  0  0  0  0  0  0
    1.0730   11.5466   -1.0682 C   0  0  0  0  0  0  0  0  0  0  0  0
    0.3345   12.7977   -1.3934 C   0  0  0  0  0  0  0  0  0  0  0  0
    0.8189   13.9581   -0.5209 C   0  0  0  0  0  0  0  0  0  0  0  0
    0.7380   10.5760   -0.1718 C   0  0  0  0  0  0  0  0  0  0  0  0
    1.6996    9.5351   -0.0714 C   0  0  0  0  0  0  0  0  0  0  0  0
    1.5376    8.2349    1.0386 Cl  0  0  0  0  0  0  0  0  0  0  0  0
   -0.7075   10.5848    0.7529 Cl  0  0  0  0  0  0  0  0  0  0  0  0
    5.2346    9.3635   -0.8874 C   0  0  0  0  0  0  0  0  0  0  0  0
    5.6435   11.0027   -0.4641 S   0  0  0  0  0  0  0  0  0  0  0  0
    2.6343    6.7532   -1.5339 C   0  0  0  0  0  0  0  0  0  0  0  0
    2.8559    5.4220   -1.7247 C   0  0  0  0  0  0  0  0  0  0  0  0
    4.5615    5.0273   -1.7413 S   0  0  0  0  0  0  0  0  0  0  0  0
    1.8920    4.3806   -1.8557 C   0  0  0  0  0  0  0  0  0  0  0  0
    2.1317    3.0629   -2.1080 C   0  0  0  0  0  0  0  0  0  0  0  0
    0.9634    2.2633   -2.1042 C   0  0  0  0  0  0  0  0  0  0  0  0
    0.8706    0.8704   -2.2799 C   0  0  0  0  0  0  0  0  0  0  0  0
    2.0289    0.0920   -2.6780 C   0  0  0  0  0  0  0  0  0  0  0  0
    2.4937   -1.3592   -1.8416 S   0  0  0  0  0  0  0  0  0  0  0  0
    3.8449   -1.6227   -2.8884 C   0  0  0  0  0  0  0  0  0  0  0  0
    4.7799   -2.7613   -2.6751 C   0  0  0  0  0  0  0  0  0  0  0  0
    5.9217   -2.3618   -1.7370 C   0  0  0  0  0  0  0  0  0  0  0  0
    3.9203   -0.6349   -3.8254 C   0  0  0  0  0  0  0  0  0  0  0  0
    5.1303   -0.5596   -5.0398 Cl  0  0  0  0  0  0  0  0  0  0  0  0
    2.8911    0.3364   -3.7134 C   0  0  0  0  0  0  0  0  0  0  0  0
    2.7198    1.6264   -4.8328 Cl  0  0  0  0  0  0  0  0  0  0  0  0
   -0.3721    0.2918   -2.0586 C   0  0  0  0  0  0  0  0  0  0  0  0
   -1.5245    1.0522   -1.7417 C   0  0  0  0  0  0  0  0  0  0  0  0
   -1.4412    2.4499   -1.6089 C   0  0  0  0  0  0  0  0  0  0  0  0
   -2.6097    3.2356   -1.2488 C   0  0  0  0  0  0  0  0  0  0  0  0
   -3.0895    4.6191   -2.1862 S   0  0  0  0  0  0  0  0  0  0  0  0
   -4.4673    4.9205   -1.1847 C   0  0  0  0  0  0  0  0  0  0  0  0
   -5.4239    6.0196   -1.4907 C   0  0  0  0  0  0  0  0  0  0  0  0
   -6.5378    5.5311   -2.4201 C   0  0  0  0  0  0  0  0  0  0  0  0
   -4.5384    3.9937   -0.1879 C   0  0  0  0  0  0  0  0  0  0  0  0
   -3.4841    3.0429   -0.2136 C   0  0  0  0  0  0  0  0  0  0  0  0
   -3.3098    1.8421    1.0039 Cl  0  0  0  0  0  0  0  0  0  0  0  0
   -5.7749    3.9611    1.0014 Cl  0  0  0  0  0  0  0  0  0  0  0  0
   -0.1927    3.0239   -1.8012 C   0  0  0  0  0  0  0  0  0  0  0  0
    0.1896    4.7110   -1.6009 S   0  0  0  0  0  0  0  0  0  0  0  0
   -2.6677    0.2348   -1.5879 C   0  0  0  0  0  0  0  0  0  0  0  0
   -2.4069   -1.0979   -1.7188 C   0  0  0  0  0  0  0  0  0  0  0  0
   -0.7371   -1.4094   -2.1362 S   0  0  0  0  0  0  0  0  0  0  0  0
   -3.3343   -2.1494   -1.4445 C   0  0  0  0  0  0  0  0  0  0  0  0
   -4.4542   -2.0149   -0.6762 C   0  0  0  0  0  0  0  0  0  0  0  0
   -5.1707   -3.2205   -0.5016 C   0  0  0  0  0  0  0  0  0  0  0  0
   -6.3103   -3.4296    0.2967 C   0  0  0  0  0  0  0  0  0  0  0  0
   -6.9224   -2.3222    1.0131 C   0  0  0  0  0  0  0  0  0  0  0  0
   -7.3770   -0.8572    0.1906 S   0  0  0  0  0  0  0  0  0  0  0  0
   -7.9321   -0.1110    1.6493 C   0  0  0  0  0  0  0  0  0  0  0  0
   -8.5236    1.2548    1.6416 C   0  0  0  0  0  0  0  0  0  0  0  0
  -10.0110    1.2078    1.2852 C   0  0  0  0  0  0  0  0  0  0  0  0
   -7.7808   -0.9643    2.7006 C   0  0  0  0  0  0  0  0  0  0  0  0
   -8.2189   -0.5794    4.3138 Cl  0  0  0  0  0  0  0  0  0  0  0  0
   -7.2049   -2.2147    2.3467 C   0  0  0  0  0  0  0  0  0  0  0  0
   -6.8248   -3.4077    3.5147 Cl  0  0  0  0  0  0  0  0  0  0  0  0
   -6.7872   -4.7302    0.3822 C   0  0  0  0  0  0  0  0  0  0  0  0
   -6.1709   -5.8124   -0.2985 C   0  0  0  0  0  0  0  0  0  0  0  0
   -5.0402   -5.6002   -1.1093 C   0  0  0  0  0  0  0  0  0  0  0  0
   -4.4350   -6.7017   -1.8396 C   0  0  0  0  0  0  0  0  0  0  0  0
   -4.0092   -8.1944   -1.0527 S   0  0  0  0  0  0  0  0  0  0  0  0
   -3.4916   -8.9225   -2.5332 C   0  0  0  0  0  0  0  0  0  0  0  0
   -3.0930  -10.3554   -2.5869 C   0  0  0  0  0  0  0  0  0  0  0  0
   -4.3381  -11.2446   -2.6528 C   0  0  0  0  0  0  0  0  0  0  0  0
   -3.6322   -8.0442   -3.5657 C   0  0  0  0  0  0  0  0  0  0  0  0
   -4.1585   -6.7833   -3.1769 C   0  0  0  0  0  0  0  0  0  0  0  0
   -4.5047   -5.5485   -4.3134 Cl  0  0  0  0  0  0  0  0  0  0  0  0
   -3.2330   -8.4103   -5.1941 Cl  0  0  0  0  0  0  0  0  0  0  0  0
   -4.5553   -4.3011   -1.1811 C   0  0  0  0  0  0  0  0  0  0  0  0
   -3.1092   -3.7886   -2.0049 S   0  0  0  0  0  0  0  0  0  0  0  0
   -6.8435   -7.0306   -0.0561 C   0  0  0  0  0  0  0  0  0  0  0  0
   -7.9191   -6.8974    0.7744 C   0  0  0  0  0  0  0  0  0  0  0  0
   -8.1908   -5.2530    1.2771 S   0  0  0  0  0  0  0  0  0  0  0  0
   -8.6994   -7.9806    1.2677 C   0  0  0  0  0  0  0  0  0  0  0  0
   -8.2880   -9.2401    0.9762 O   0  0  0  0  0  0  0  0  0  0  0  0
   -9.1069  -10.1131    1.5994 C   0  0  0  0  0  0  0  0  0  0  0  0
  -10.0639   -9.4135    2.3179 C   0  0  0  0  0  0  0  0  0  0  0  0
   -9.8071   -8.0379    2.0962 C   0  0  0  0  0  0  0  0  0  0  0  0
  -10.4774   -6.9823    2.5869 O   0  0  0  0  0  0  0  0  0  0  0  0
  -11.3598  -10.0110    3.3485 S   0  0  0  0  0  0  0  0  0  0  0  0
   -8.7826  -11.4953    1.5011 C   0  0  0  0  0  0  0  0  0  0  0  0
   -9.4897  -12.5908    1.9021 C   0  0  0  0  0  0  0  0  0  0  0  0
   -8.7766  -13.8035    1.7363 C   0  0  0  0  0  0  0  0  0  0  0  0
   -9.2007  -15.1005    2.0678 C   0  0  0  0  0  0  0  0  0  0  0  0
  -10.4531  -15.3132    2.7711 C   0  0  0  0  0  0  0  0  0  0  0  0
  -11.6388  -16.4558    2.2173 S   0  0  0  0  0  0  0  0  0  0  0  0
  -12.7172  -16.0880    3.5193 C   0  0  0  0  0  0  0  0  0  0  0  0
  -14.0069  -16.8133    3.6815 C   0  0  0  0  0  0  0  0  0  0  0  0
  -13.8042  -18.1093    4.4705 C   0  0  0  0  0  0  0  0  0  0  0  0
  -12.1717  -15.1429    4.3367 C   0  0  0  0  0  0  0  0  0  0  0  0
  -12.9416  -14.5283    5.7431 Cl  0  0  0  0  0  0  0  0  0  0  0  0
  -10.8926  -14.6980    3.9121 C   0  0  0  0  0  0  0  0  0  0  0  0
   -9.9696  -13.5665    4.8182 Cl  0  0  0  0  0  0  0  0  0  0  0  0
   -8.3539  -16.1464    1.7206 C   0  0  0  0  0  0  0  0  0  0  0  0
   -7.0919  -15.9457    1.1132 C   0  0  0  0  0  0  0  0  0  0  0  0
   -6.6422  -14.6435    0.8370 C   0  0  0  0  0  0  0  0  0  0  0  0
   -5.3313  -14.3945    0.2571 C   0  0  0  0  0  0  0  0  0  0  0  0
   -4.8328  -15.1618   -1.2221 S   0  0  0  0  0  0  0  0  0  0  0  0
   -3.2950  -14.3674   -1.2116 C   0  0  0  0  0  0  0  0  0  0  0  0
   -2.2706  -14.6442   -2.2567 C   0  0  0  0  0  0  0  0  0  0  0  0
   -1.4220  -15.8605   -1.8782 C   0  0  0  0  0  0  0  0  0  0  0  0
   -3.1876  -13.5636   -0.1164 C   0  0  0  0  0  0  0  0  0  0  0  0
   -4.3400  -13.5707    0.7147 C   0  0  0  0  0  0  0  0  0  0  0  0
   -4.4098  -12.6909    2.1837 Cl  0  0  0  0  0  0  0  0  0  0  0  0
   -1.8022  -12.6171    0.2431 Cl  0  0  0  0  0  0  0  0  0  0  0  0
   -7.5045  -13.5988    1.1475 C   0  0  0  0  0  0  0  0  0  0  0  0
   -7.2154  -11.9115    0.8379 S   0  0  0  0  0  0  0  0  0  0  0  0
   -6.4055  -17.1799    0.9164 C   0  0  0  0  0  0  0  0  0  0  0  0
   -7.1108  -18.2464    1.3440 C   0  0  0  0  0  0  0  0  0  0  0  0
   -8.6482  -17.8357    2.0213 S   0  0  0  0  0  0  0  0  0  0  0  0
   14.3704   16.3305    2.2591 H   0  0  0  0  0  0  0  0  0  0  0  0
   12.1110   16.9961    1.1507 H   0  0  0  0  0  0  0  0  0  0  0  0
    6.8904   19.3153   -1.4683 H   0  0  0  0  0  0  0  0  0  0  0  0
    7.0372   18.0058   -2.6569 H   0  0  0  0  0  0  0  0  0  0  0  0
    8.0726   20.0937   -3.5153 H   0  0  0  0  0  0  0  0  0  0  0  0
    9.3019   18.8440   -3.2913 H   0  0  0  0  0  0  0  0  0  0  0  0
    9.1469   20.1527   -2.1146 H   0  0  0  0  0  0  0  0  0  0  0  0
   14.8477    7.9571    3.8301 H   0  0  0  0  0  0  0  0  0  0  0  0
   14.6578    9.3210    4.9488 H   0  0  0  0  0  0  0  0  0  0  0  0
   12.5545    7.1677    4.4042 H   0  0  0  0  0  0  0  0  0  0  0  0
   13.5615    7.2835    5.8508 H   0  0  0  0  0  0  0  0  0  0  0  0
   12.3561    8.5300    5.5108 H   0  0  0  0  0  0  0  0  0  0  0  0
    9.8126   10.2283    0.8354 H   0  0  0  0  0  0  0  0  0  0  0  0
    8.5575    8.8649   -0.7639 H   0  0  0  0  0  0  0  0  0  0  0  0
   11.1027    3.6417   -0.9129 H   0  0  0  0  0  0  0  0  0  0  0  0
   11.0024    4.7779    0.4476 H   0  0  0  0  0  0  0  0  0  0  0  0
   12.0483    5.4382   -2.3511 H   0  0  0  0  0  0  0  0  0  0  0  0
   11.9305    6.5856   -1.0140 H   0  0  0  0  0  0  0  0  0  0  0  0
   13.0373    5.2137   -0.9046 H   0  0  0  0  0  0  0  0  0  0  0  0
   -0.7307   12.6310   -1.2226 H   0  0  0  0  0  0  0  0  0  0  0  0
    0.4871   13.0455   -2.4451 H   0  0  0  0  0  0  0  0  0  0  0  0
    1.8810   14.1301   -0.6782 H   0  0  0  0  0  0  0  0  0  0  0  0
    0.2760   14.8654   -0.7716 H   0  0  0  0  0  0  0  0  0  0  0  0
    0.6552   13.7328    0.5298 H   0  0  0  0  0  0  0  0  0  0  0  0
    1.6474    7.1785   -1.5274 H   0  0  0  0  0  0  0  0  0  0  0  0
    3.1231    2.6763   -2.2599 H   0  0  0  0  0  0  0  0  0  0  0  0
    4.2328   -3.6025   -2.2472 H   0  0  0  0  0  0  0  0  0  0  0  0
    5.1910   -3.0635   -3.6403 H   0  0  0  0  0  0  0  0  0  0  0  0
    6.5950   -3.2018   -1.5899 H   0  0  0  0  0  0  0  0  0  0  0  0
    6.4843   -1.5337   -2.1602 H   0  0  0  0  0  0  0  0  0  0  0  0
    5.5267   -2.0565   -0.7710 H   0  0  0  0  0  0  0  0  0  0  0  0
   -4.8877    6.8429   -1.9647 H   0  0  0  0  0  0  0  0  0  0  0  0
   -5.8606    6.3770   -0.5559 H   0  0  0  0  0  0  0  0  0  0  0  0
   -7.0896    4.7194   -1.9528 H   0  0  0  0  0  0  0  0  0  0  0  0
   -7.2272    6.3430   -2.6348 H   0  0  0  0  0  0  0  0  0  0  0  0
   -6.1177    5.1722   -3.3565 H   0  0  0  0  0  0  0  0  0  0  0  0
   -3.6519    0.6187   -1.4000 H   0  0  0  0  0  0  0  0  0  0  0  0
   -4.7317   -1.0878   -0.2120 H   0  0  0  0  0  0  0  0  0  0  0  0
   -8.3980    1.6948    2.6327 H   0  0  0  0  0  0  0  0  0  0  0  0
   -7.9944    1.8744    0.9156 H   0  0  0  0  0  0  0  0  0  0  0  0
  -10.4264    2.2119    1.2847 H   0  0  0  0  0  0  0  0  0  0  0  0
  -10.5529    0.6062    2.0105 H   0  0  0  0  0  0  0  0  0  0  0  0
  -10.1489    0.7711    0.2988 H   0  0  0  0  0  0  0  0  0  0  0  0
   -2.4775  -10.5168   -3.4735 H   0  0  0  0  0  0  0  0  0  0  0  0
   -2.5104  -10.6116   -1.7012 H   0  0  0  0  0  0  0  0  0  0  0  0
   -4.9492  -10.9714   -3.5095 H   0  0  0  0  0  0  0  0  0  0  0  0
   -4.0505  -12.2874   -2.7489 H   0  0  0  0  0  0  0  0  0  0  0  0
   -4.9330  -11.1298   -1.7492 H   0  0  0  0  0  0  0  0  0  0  0  0
   -6.5542   -7.9812   -0.4616 H   0  0  0  0  0  0  0  0  0  0  0  0
  -11.1680   -7.2942    3.1882 H   0  0  0  0  0  0  0  0  0  0  0  0
  -10.6787  -11.0285    3.8720 H   0  0  0  0  0  0  0  0  0  0  0  0
  -10.5018  -12.5501    2.2569 H   0  0  0  0  0  0  0  0  0  0  0  0
  -14.7094  -16.1679    4.2120 H   0  0  0  0  0  0  0  0  0  0  0  0
  -14.4180  -17.0465    2.6981 H   0  0  0  0  0  0  0  0  0  0  0  0
  -13.4073  -17.8905    5.4586 H   0  0  0  0  0  0  0  0  0  0  0  0
  -13.1054  -18.7611    3.9516 H   0  0  0  0  0  0  0  0  0  0  0  0
  -14.7513  -18.6297    4.5828 H   0  0  0  0  0  0  0  0  0  0  0  0
   -2.7644  -14.8303   -3.2120 H   0  0  0  0  0  0  0  0  0  0  0  0
   -1.6271  -13.7681   -2.3573 H   0  0  0  0  0  0  0  0  0  0  0  0
   -2.0491  -16.7439   -1.7834 H   0  0  0  0  0  0  0  0  0  0  0  0
   -0.6727  -16.0452   -2.6430 H   0  0  0  0  0  0  0  0  0  0  0  0
   -0.9179  -15.6876   -0.9309 H   0  0  0  0  0  0  0  0  0  0  0  0
   -5.4278  -17.2514    0.4771 H   0  0  0  0  0  0  0  0  0  0  0  0
   -6.8265  -19.2799    1.3111 H   0  0  0  0  0  0  0  0  0  0  0  0
  1  2  2  0  0  0  0
  2  3  1  0  0  0  0
  3  4  2  0  0  0  0
  4  5  1  0  0  0  0
  5  6  1  0  0  0  0
  6  7  1  0  0  0  0
  7  8  1  0  0  0  0
  8  9  1  0  0  0  0
  7 10  2  0  0  0  0
 10 11  1  0  0  0  0
 10 12  1  0  0  0  0
 12 13  1  0  0  0  0
  4 14  1  0  0  0  0
 14 15  2  0  0  0  0
 15 16  1  0  0  0  0
 16 17  1  0  0  0  0
 17 18  1  0  0  0  0
 18 19  1  0  0  0  0
 19 20  1  0  0  0  0
 20 21  1  0  0  0  0
 19 22  2  0  0  0  0
 22 23  1  0  0  0  0
 23 24  1  0  0  0  0
 22 25  1  0  0  0  0
 16 26  2  0  0  0  0
 26 27  1  0  0  0  0
 15 28  1  0  0  0  0
 28 29  2  0  0  0  0
 29 30  1  0  0  0  0
 29 31  1  0  0  0  0
 31 32  2  0  0  0  0
 32 33  1  0  0  0  0
 33 34  2  0  0  0  0
 34 35  1  0  0  0  0
 35 36  1  0  0  0  0
 36 37  1  0  0  0  0
 37 38  1  0  0  0  0
 38 39  1  0  0  0  0
 37 40  2  0  0  0  0
 40 41  1  0  0  0  0
 40 42  1  0  0  0  0
 42 43  1  0  0  0  0
 34 44  1  0  0  0  0
 44 45  2  0  0  0  0
 45 46  1  0  0  0  0
 46 47  1  0  0  0  0
 47 48  1  0  0  0  0
 48 49  1  0  0  0  0
 49 50  1  0  0  0  0
 50 51  1  0  0  0  0
 49 52  2  0  0  0  0
 52 53  1  0  0  0  0
 53 54  1  0  0  0  0
 52 55  1  0  0  0  0
 46 56  2  0  0  0  0
 56 57  1  0  0  0  0
 45 58  1  0  0  0  0
 58 59  2  0  0  0  0
 59 60  1  0  0  0  0
 59 61  1  0  0  0  0
 61 62  2  0  0  0  0
 62 63  1  0  0  0  0
 63 64  2  0  0  0  0
 64 65  1  0  0  0  0
 65 66  1  0  0  0  0
 66 67  1  0  0  0  0
 67 68  1  0  0  0  0
 68 69  1  0  0  0  0
 67 70  2  0  0  0  0
 70 71  1  0  0  0  0
 70 72  1  0  0  0  0
 72 73  1  0  0  0  0
 64 74  1  0  0  0  0
 74 75  2  0  0  0  0
 75 76  1  0  0  0  0
 76 77  1  0  0  0  0
 77 78  1  0  0  0  0
 78 79  1  0  0  0  0
 79 80  1  0  0  0  0
 80 81  1  0  0  0  0
 79 82  2  0  0  0  0
 82 83  1  0  0  0  0
 83 84  1  0  0  0  0
 82 85  1  0  0  0  0
 76 86  2  0  0  0  0
 86 87  1  0  0  0  0
 75 88  1  0  0  0  0
 88 89  2  0  0  0  0
 89 90  1  0  0  0  0
 89 91  1  0  0  0  0
 91 92  2  0  0  0  0
 92 93  1  0  0  0  0
 93 94  2  0  0  0  0
 94 95  1  0  0  0  0
 95 96  1  0  0  0  0
 96 97  1  0  0  0  0
 97 98  1  0  0  0  0
 98 99  1  0  0  0  0
 97100  2  0  0  0  0
100101  1  0  0  0  0
100102  1  0  0  0  0
102103  1  0  0  0  0
 94104  1  0  0  0  0
104105  2  0  0  0  0
105106  1  0  0  0  0
106107  1  0  0  0  0
107108  1  0  0  0  0
108109  1  0  0  0  0
109110  1  0  0  0  0
110111  1  0  0  0  0
109112  2  0  0  0  0
112113  1  0  0  0  0
113114  1  0  0  0  0
112115  1  0  0  0  0
106116  2  0  0  0  0
116117  1  0  0  0  0
105118  1  0  0  0  0
118119  2  0  0  0  0
119120  1  0  0  0  0
119121  1  0  0  0  0
121122  1  0  0  0  0
122123  1  0  0  0  0
123124  2  0  0  0  0
124125  1  0  0  0  0
125126  1  0  0  0  0
124127  1  0  0  0  0
123128  1  0  0  0  0
128129  2  0  0  0  0
129130  1  0  0  0  0
130131  2  0  0  0  0
131132  1  0  0  0  0
132133  1  0  0  0  0
133134  1  0  0  0  0
134135  1  0  0  0  0
135136  1  0  0  0  0
134137  2  0  0  0  0
137138  1  0  0  0  0
137139  1  0  0  0  0
139140  1  0  0  0  0
131141  1  0  0  0  0
141142  2  0  0  0  0
142143  1  0  0  0  0
143144  1  0  0  0  0
144145  1  0  0  0  0
145146  1  0  0  0  0
146147  1  0  0  0  0
147148  1  0  0  0  0
146149  2  0  0  0  0
149150  1  0  0  0  0
150151  1  0  0  0  0
149152  1  0  0  0  0
143153  2  0  0  0  0
153154  1  0  0  0  0
142155  1  0  0  0  0
155156  2  0  0  0  0
156157  1  0  0  0  0
 27  1  1  0  0  0  0
 57 31  1  0  0  0  0
 87 61  1  0  0  0  0
117 91  1  0  0  0  0
125121  2  0  0  0  0
154128  1  0  0  0  0
 26  3  1  0  0  0  0
 56 33  1  0  0  0  0
 86 63  1  0  0  0  0
116 93  1  0  0  0  0
153130  1  0  0  0  0
 12  5  2  0  0  0  0
 30 14  1  0  0  0  0
 42 35  2  0  0  0  0
 60 44  1  0  0  0  0
 72 65  2  0  0  0  0
 90 74  1  0  0  0  0
102 95  2  0  0  0  0
120104  1  0  0  0  0
139132  2  0  0  0  0
157141  1  0  0  0  0
 23 17  2  0  0  0  0
 53 47  2  0  0  0  0
 83 77  2  0  0  0  0
113107  2  0  0  0  0
150144  2  0  0  0  0
  1158  1  0  0  0  0
  2159  1  0  0  0  0
  8160  1  0  0  0  0
  8161  1  0  0  0  0
  9162  1  0  0  0  0
  9163  1  0  0  0  0
  9164  1  0  0  0  0
 20165  1  0  0  0  0
 20166  1  0  0  0  0
 21167  1  0  0  0  0
 21168  1  0  0  0  0
 21169  1  0  0  0  0
 28170  1  0  0  0  0
 32171  1  0  0  0  0
 38172  1  0  0  0  0
 38173  1  0  0  0  0
 39174  1  0  0  0  0
 39175  1  0  0  0  0
 39176  1  0  0  0  0
 50177  1  0  0  0  0
 50178  1  0  0  0  0
 51179  1  0  0  0  0
 51180  1  0  0  0  0
 51181  1  0  0  0  0
 58182  1  0  0  0  0
 62183  1  0  0  0  0
 68184  1  0  0  0  0
 68185  1  0  0  0  0
 69186  1  0  0  0  0
 69187  1  0  0  0  0
 69188  1  0  0  0  0
 80189  1  0  0  0  0
 80190  1  0  0  0  0
 81191  1  0  0  0  0
 81192  1  0  0  0  0
 81193  1  0  0  0  0
 88194  1  0  0  0  0
 92195  1  0  0  0  0
 98196  1  0  0  0  0
 98197  1  0  0  0  0
 99198  1  0  0  0  0
 99199  1  0  0  0  0
 99200  1  0  0  0  0
110201  1  0  0  0  0
110202  1  0  0  0  0
111203  1  0  0  0  0
111204  1  0  0  0  0
111205  1  0  0  0  0
118206  1  0  0  0  0
126207  1  0  0  0  0
127208  1  0  0  0  0
129209  1  0  0  0  0
135210  1  0  0  0  0
135211  1  0  0  0  0
136212  1  0  0  0  0
136213  1  0  0  0  0
136214  1  0  0  0  0
147215  1  0  0  0  0
147216  1  0  0  0  0
148217  1  0  0  0  0
148218  1  0  0  0  0
148219  1  0  0  0  0
155220  1  0  0  0  0
156221  1  0  0  0  0
M  END
