222

C          7.47830       -4.63230       -8.62320
C          7.64800       -3.30100       -8.75120
C          6.62040       -2.54870       -8.11060
C          6.51030       -1.15510       -7.99110
C          7.55130       -0.26630       -8.48180
S          7.19140        1.05880       -9.54640
C          8.84550        1.56250       -9.60360
C          9.25570        2.77650      -10.36120
C          9.04910        4.03650       -9.51680
C          9.61680        0.74960       -8.82740
Cl        11.31000        0.94350       -8.62440
C          8.88770       -0.29180       -8.19360
Cl         9.61900       -1.40570       -7.11160
C          5.38430       -0.66350       -7.34360
C          4.39050       -1.50460       -6.78880
C          4.52130       -2.90220       -6.86830
C          3.54590       -3.77800       -6.24040
S          3.11600       -3.57580       -4.56550
C          1.99790       -4.89610       -4.60280
C          1.23750       -5.28780       -3.38210
C          1.82510       -6.54030       -2.72790
C          1.98340       -5.46050       -5.84340
C          2.85360       -4.82940       -6.77350
Cl         2.92740       -5.30220       -8.41890
Cl         1.01020       -6.80070       -6.28300
C          5.63820       -3.39190       -7.53510
S          6.05860       -5.06840       -7.73870
C          3.35550       -0.76050       -6.17280
C          3.55910        0.58840       -6.20590
S          5.03620        1.01490       -7.04080
C          2.74820        1.58070       -5.57420
C          1.52980        1.38720       -4.98950
C          1.04080        2.52580       -4.30600
C         -0.12790        2.62880       -3.52600
C         -1.04520        1.50160       -3.46060
S         -1.45840        0.73610       -1.95400
C         -2.37390       -0.50360       -2.74480
C         -2.98700       -1.62380       -1.97870
C         -1.98640       -2.76590       -1.78000
C         -2.36100       -0.31410       -4.09500
Cl        -3.15980       -1.34150       -5.21340
C         -1.60960        0.82020       -4.50360
Cl        -1.47990        1.30380       -6.14570
C         -0.28300        3.78730       -2.77840
C          0.65330        4.85020       -2.82050
C          1.78400        4.77290       -3.64650
C          2.78470        5.83290       -3.62540
S          2.43890        7.43760       -4.18890
C          4.01840        8.00780       -3.76390
C          4.43380        9.40750       -4.05440
C          4.83220        9.56680       -5.52350
C          4.75610        6.99970       -3.21950
C          4.05710        5.76520       -3.13620
Cl         4.73110        4.35760       -2.43040
Cl         6.36700        7.18190       -2.65730
C          1.95800        3.60430       -4.36910
S          3.34020        3.21180       -5.34890
C          0.39530        5.82800       -1.83150
C         -0.68250        5.54110       -1.04800
S         -1.51810        4.08920       -1.58320
C         -0.93350        6.07440        0.25300
C         -1.94570        5.78890        1.12000
C         -1.62110        6.05290        2.47630
C         -2.33270        5.67000        3.63110
C         -3.70750        5.20860        3.61190
S         -4.31840        4.05490        2.46260
C         -5.88880        4.03660        3.18690
C         -6.99610        3.22770        2.60820
C         -7.69480        3.98820        1.47820
C         -5.92880        4.88970        4.24910
Cl        -7.32430        5.15490        5.21090
C         -4.69470        5.54460        4.50130
Cl        -4.51260        6.69990        5.75320
C         -1.60210        5.61810        4.81560
C         -0.26220        6.05920        4.91850
C          0.37520        6.64780        3.80970
C          1.76580        7.05080        3.90280
S          2.96180        6.43010        2.80130
C          4.25720        7.22250        3.63390
C          5.66480        7.07960        3.16890
C          5.79240        7.28740        1.66140
C          3.77420        7.92720        4.69660
C          2.36580        7.82190        4.85960
Cl         1.51050        8.63280        6.10600
Cl         4.75120        8.85470        5.76040
C         -0.30960        6.57750        2.60520
S          0.41280        6.87470        1.05090
C          0.39750        5.50400        6.04160
C         -0.36730        4.60120        6.72340
S         -2.04310        4.63480        6.19040
C          0.14210        3.39890        7.31670
C          1.30050        2.84080        6.85010
C          1.35860        1.43850        7.00410
C          2.20910        0.57330        6.28460
C          3.32660        1.13280        5.54890
S          3.56720        0.81150        3.85470
C          4.86290        1.95350        3.73920
C          5.52630        2.23840        2.43750
C          4.65900        3.14920        1.56490
C          5.09240        2.53260        4.95180
Cl         6.29090        3.72880        5.23260
C          4.23070        2.06810        5.97990
Cl         4.36910        2.59820        7.60730
C          1.78320       -0.74220        6.17020
C          0.65050       -1.24990        6.85780
C         -0.10430       -0.41230        7.70310
C         -1.25670       -0.87340        8.45470
S         -2.52420       -1.83790        7.75510
C         -3.43890       -1.85360        9.22430
C         -4.72100       -2.60360        9.32080
C         -4.48270       -4.11480        9.30670
C         -2.78520       -1.15400       10.19390
C         -1.55720       -0.58670        9.75960
Cl        -0.53300        0.29600       10.81120
Cl        -3.36970       -0.95450       11.79450
C          0.22820        0.93840        7.69020
S         -0.83740        2.23590        8.17890
C          0.32230       -2.55690        6.42450
C          1.10920       -3.01020        5.40580
S          2.42820       -1.91190        5.05040
C          0.79340       -4.07610        4.51170
C          1.39290       -4.40700        3.32730
C          0.63220       -5.28940        2.52460
C          1.12730       -5.74580        1.22220
O          0.52940       -6.41660        0.41350
O          2.38070       -5.32700        0.98630
C         -0.57600       -5.64050        3.11760
S         -0.71910       -4.92110        4.68990
C         -1.72430       -6.34580        2.64030
C         -2.19540       -6.48260        1.36830
C         -3.49710       -7.04000        1.30920
C         -4.31170       -7.18690        0.17860
C         -3.84830       -6.82480       -1.15570
S         -2.61860       -7.72940       -1.97780
C         -2.74640       -6.74690       -3.39600
C         -1.97410       -7.06940       -4.62620
C         -2.75920       -8.02760       -5.52560
C         -3.67880       -5.76780       -3.21980
Cl        -4.06300       -4.58430       -4.40260
C         -4.30880       -5.81280       -1.94820
Cl        -5.49810       -4.68120       -1.44980
C         -5.59950       -7.66060        0.38220
C         -6.10610       -7.99560        1.66070
C         -5.29330       -7.84640        2.79510
C         -5.77860       -8.14010        4.13410
S         -7.22320       -7.39690        4.75460
C         -7.05130       -8.16420        6.29550
C         -8.00080       -7.89110        7.40940
C         -7.50120       -6.73090        8.27400
C         -5.93360       -8.94390        6.31370
C         -5.21020       -8.93430        5.09090
Cl        -3.81190       -9.89260        4.84070
Cl        -5.43490       -9.86450        7.67270
C         -4.00720       -7.36050        2.59130
S         -2.86260       -6.95750        3.83330
C         -7.44370       -8.48020        1.57980
C         -7.91640       -8.50270        0.31610
S         -6.78330       -7.94130       -0.86240
H          8.10350       -5.41590       -9.00460
H          8.46360       -2.85230       -9.28710
H         10.30940        2.68370      -10.63000
H          8.66500        2.85110      -11.27570
H          9.35040        4.91610      -10.07900
H          8.00220        4.13770       -9.24090
H          9.64370        3.98250       -8.60840
H          0.19780       -5.48030       -3.65330
H          1.25810       -4.45850       -2.67290
H          2.87000       -6.37640       -2.47030
H          1.26300       -6.78420       -1.82970
H          1.77240       -7.38360       -3.41090
H          2.50050       -1.21060       -5.70560
H          1.01060        0.44810       -5.01730
H         -3.85250       -1.99620       -2.52930
H         -3.32000       -1.26010       -1.00560
H         -1.66890       -3.15980       -2.74230
H         -1.11120       -2.41310       -1.23920
H         -2.44840       -3.56890       -1.21170
H          5.28090        9.65970       -3.41430
H          3.60920       10.08590       -3.82760
H          3.99320        9.32140       -6.17030
H          5.13590       10.59160       -5.71870
H          5.66100        8.90550       -5.76330
H          1.03530        6.67370       -1.65340
H         -2.85370        5.31000        0.80290
H         -6.59650        2.28870        2.22140
H         -7.71550        3.00480        3.39830
H         -8.10780        4.92180        1.85170
H         -8.50320        3.38830        1.06930
H         -6.98900        4.21300        0.68190
H          6.27840        7.80610        3.70460
H          6.02700        6.07960        3.42690
H          5.45160        8.28220        1.38510
H          5.19260        6.55620        1.12410
H          6.82940        7.17840        1.35560
H          1.44130        5.65830        6.24400
H          2.00410        3.39220        6.25570
H          6.48550        2.72040        2.63360
H          5.70820        1.30030        1.90970
H          3.71090        2.66680        1.34040
H          5.16890        3.36550        0.63020
H          4.45470        4.08640        2.07650
H         -5.36480       -2.33300        8.48110
H         -5.21910       -2.31610       10.24800
H         -4.00750       -4.41390        8.37520
H         -5.42870       -4.64060        9.40190
H         -3.83930       -4.40300       10.13420
H         -0.52320       -3.11320        6.78540
H          2.33690       -4.00040        3.01270
H          2.67430       -5.65190        0.12040
H         -1.64790       -6.17010        0.50020
H         -1.77280       -6.14690       -5.17460
H         -1.02700       -7.53340       -4.34930
H         -3.70280       -7.57870       -5.82490
H         -2.18140       -8.25300       -6.41780
H         -2.96660       -8.95590       -4.99890
H         -8.98140       -7.64610        6.99900
H         -8.09090       -8.78910        8.02370
H         -8.20000       -6.54160        9.08440
H         -7.40570       -5.82850        7.67460
H         -6.53000       -6.97320        8.69810
H         -8.01210       -8.79860        2.43410
H         -8.88490       -8.82090       -0.01700
