228

C          2.28350       -2.96340       13.17110
C          1.24930       -2.39370       12.51970
C          1.13040       -2.84190       11.17170
C          0.15720       -2.49420       10.22180
C         -0.88080       -1.51610       10.50680
S         -0.47920        0.08800       11.04470
C         -2.13820        0.58010       11.07080
C         -2.52420        1.97560       11.41740
C         -2.46190        2.87940       10.18350
C         -2.94210       -0.44780       10.67840
Cl        -4.65180       -0.34050       10.58150
C         -2.23410       -1.63800       10.35900
Cl        -3.02800       -3.09020        9.91300
C          0.24950       -3.09740        8.97390
C          1.27050       -4.02060        8.64030
C          2.22290       -4.39700        9.60240
C          3.24760       -5.37760        9.28900
S          4.93250       -5.05690        9.57240
C          5.41140       -6.59700        8.94700
C          6.84680       -6.97760        8.84130
C          7.44630       -6.48820        7.52060
C          4.31920       -7.30600        8.54310
C          3.09080       -6.62090        8.73870
Cl         1.57050       -7.34000        8.38880
Cl         4.39750       -8.88320        7.86980
C          2.13490       -3.78400       10.84620
S          3.18300       -4.08060       12.20450
C          1.21260       -4.40270        7.27890
C          0.18320       -3.82570        6.59480
S         -0.77480       -2.77050        7.60780
C         -0.10080       -3.96350        5.20320
C          0.64010       -4.65200        4.28790
C          0.18630       -4.50120        2.95600
C          0.73580       -5.05790        1.78210
C          1.81620       -6.02710        1.83010
S          3.23020       -5.80510        2.82470
C          3.93440       -7.30030        2.31590
C          5.22950       -7.76550        2.88290
C          5.06340       -8.20240        4.33980
C          3.10840       -7.93080        1.43470
Cl         3.45460       -9.44920        0.71330
C          1.91280       -7.21450        1.15420
Cl         0.68870       -7.86320        0.14680
C          0.18670       -4.62680        0.57610
C         -0.94320       -3.77840        0.52590
C         -1.59690       -3.36180        1.69850
C         -2.84740       -2.63370        1.60560
S         -3.15570       -1.18910        2.52010
C         -4.71110       -0.95980        1.79640
C         -5.54170        0.23260        2.11860
C         -5.03550        1.46900        1.37170
C         -4.96710       -1.95950        0.90640
C         -3.92240       -2.91510        0.80210
Cl        -4.07610       -4.31540       -0.18290
Cl        -6.40600       -2.07910       -0.01870
C         -0.96840       -3.67970        2.89320
S         -1.46700       -3.15460        4.47290
C         -1.24400       -3.37870       -0.79460
C         -0.39900       -3.89360       -1.72950
S          0.81380       -4.92570       -1.02540
C         -0.56790       -3.56260       -3.11930
C         -1.79690       -3.50190       -3.69910
C         -1.81020       -2.80830       -4.93250
C         -2.95200       -2.37860       -5.63040
C         -4.27260       -2.79220       -5.18340
S         -5.47620       -1.62970       -4.70620
C         -6.59590       -2.86560       -4.23700
C         -7.94070       -2.51740       -3.70190
C         -8.74680       -1.69000       -4.70270
C         -6.05670       -4.09860       -4.45110
Cl        -6.86330       -5.57540       -4.11480
C         -4.73630       -4.06050       -4.97700
Cl        -3.84750       -5.47760       -5.35980
C         -2.75450       -1.42220       -6.61260
C         -1.46850       -0.95000       -6.96960
C         -0.32240       -1.42790       -6.30820
C          0.94680       -0.76230       -6.58920
S          1.58190        0.43020       -5.49220
C          2.78930        0.93700       -6.62640
C          3.66770        2.10640       -6.35020
C          2.92330        3.41350       -6.63400
C          2.70110        0.20510       -7.77230
C          1.65090       -0.75310       -7.75690
Cl         1.29920       -1.78580       -9.08160
Cl         3.72080        0.42970       -9.13480
C         -0.52060       -2.33270       -5.27720
S          0.68010       -2.84980       -4.11940
C         -1.53880        0.22020       -7.76820
C         -2.81240        0.68170       -7.93650
S         -4.01010       -0.45510       -7.34070
C         -3.13420        2.07590       -8.01050
C         -4.03620        2.64800       -7.15990
C         -3.68700        3.96760       -6.78160
C         -4.11180        4.60830       -5.60060
C         -5.26060        4.09770       -4.88060
S         -5.20350        3.73000       -3.18070
C         -6.81300        3.09870       -3.18130
C         -7.41070        2.50640       -1.95310
C         -7.28090        0.98140       -1.97060
C         -7.35400        3.17670       -4.43040
Cl        -8.93900        2.64510       -4.81730
C         -6.47960        3.74130       -5.39530
Cl        -6.94710        4.00060       -7.02580
C         -3.25620        5.57930       -5.09590
C         -2.12950        6.06830       -5.80280
C         -1.81110        5.54250       -7.07050
C         -0.67710        5.97950       -7.86170
S          0.91460        6.21430       -7.19850
C          1.60260        6.56780       -8.74600
C          3.03920        6.92940       -8.89020
C          3.25650        8.42460       -8.64530
C          0.64000        6.52390       -9.70940
C         -0.64670        6.17890       -9.21640
Cl        -2.02510        6.10220      -10.23110
Cl         0.93490        6.83950      -11.36970
C         -2.54860        4.43450       -7.47620
S         -1.97660        3.24250       -8.62070
C         -1.33080        6.90900       -4.99040
C         -1.74100        6.97240       -3.68770
S         -3.28320        6.17520       -3.46240
C         -0.87530        7.38230       -2.62070
C         -0.89740        6.98250       -1.33780
C         -2.01930        6.22750       -0.70470
C          0.37840        7.13660       -0.53680
N          1.39930        6.24750       -1.06490
C          1.39610        4.90670       -0.82050
C          1.94180        3.99370       -1.64920
C          2.12700        2.61050       -1.35580
C          2.70500        1.67820       -2.16870
C          2.85630        0.39970       -1.57640
C          3.49410       -0.73700       -2.10190
C          4.18840       -0.73080       -3.37900
S          3.93420       -1.99020       -4.55170
C          5.12890       -1.34930       -5.62190
C          5.46050       -1.99760       -6.92220
C          4.55460       -3.17990       -7.23290
C          5.68890       -0.22760       -5.08580
Cl         6.92490        0.67270       -5.86610
C          5.16170        0.12530       -3.81660
Cl         5.77040        1.44970       -2.90610
C          3.50580       -1.87680       -1.30420
C          2.95920       -1.91500       -0.00300
C          2.35220       -0.76960        0.54100
C          1.84110       -0.75940        1.90320
S          0.24760       -0.15730        2.26170
C          0.44090       -0.40900        3.96380
C         -0.58980        0.03900        4.93930
C         -0.41770        1.52600        5.25740
C          1.66610       -0.94570        4.22020
C          2.46210       -1.14420        3.05990
Cl         4.08440       -1.69610        3.16640
Cl         2.22640       -1.34280        5.79470
C          2.30510        0.35680       -0.27000
S          1.67000        1.91420        0.19170
C          3.14890       -3.18680        0.60760
C          3.82480       -4.05130       -0.17530
S          4.25790       -3.39380       -1.71370
H          2.59070       -2.80320       14.18600
H          0.58060       -1.68250       12.96840
H         -3.54050        1.96990       11.81550
H         -1.84890        2.35960       12.18380
H         -1.45310        2.89450        9.77770
H         -2.74740        3.89360       10.44900
H         -3.14030        2.51500        9.41630
H          6.92630       -8.06500        8.89740
H          7.39880       -6.54180        9.67530
H          7.37660       -5.40530        7.45310
H          6.91170       -6.92390        6.68060
H          8.49210       -6.77590        7.45660
H          1.92850       -5.05720        6.81990
H          1.50400       -5.22610        4.56050
H          5.96260       -6.95720        2.83030
H          5.58960       -8.60300        2.28340
H          4.72210       -7.36740        4.94800
H          6.01140       -8.55930        4.73370
H          4.33440       -9.00530        4.41440
H         -5.50520        0.41900        3.19340
H         -6.57490        0.02620        1.83440
H         -4.00680        1.68190        1.65230
H         -5.65130        2.33010        1.61690
H         -5.07420        1.30450        0.29820
H         -2.01520       -2.67380       -1.04270
H         -2.67830       -3.89600       -3.22820
H         -7.82240       -1.95100       -2.77430
H         -8.46890       -3.44390       -3.47110
H         -9.71540       -1.43310       -4.28190
H         -8.21720       -0.77270       -4.95050
H         -8.90480       -2.25330       -5.61900
H          4.55310        2.04090       -6.98400
H          3.98790        2.09300       -5.30820
H          2.62610        3.46140       -7.67880
H          3.56520        4.26230       -6.41400
H          2.03020        3.48350       -6.01690
H         -0.67410        0.78410       -8.06890
H         -4.80620        2.07810       -6.67260
H         -6.90380        2.91200       -1.07660
H         -8.46750        2.77730       -1.90520
H         -6.23710        0.68710       -2.05070
H         -7.81860        0.57440       -2.82180
H         -7.69550        0.56010       -1.05900
H          3.36250        6.67500       -9.90110
H          3.63210        6.35360       -8.17760
H          2.68190        9.01010       -9.35830
H          2.94050        8.69260       -7.63980
H          4.30840        8.67210       -8.75880
H         -0.41830        7.36290       -5.32980
H         -0.00740        7.93130       -2.96960
H         -2.96920        6.72750       -0.88250
H         -1.86930        6.13980        0.36820
H         -2.09540        5.22290       -1.12310
H          0.76420        8.15800       -0.60010
H          0.21730        6.88610        0.51280
H          1.71280        6.49420       -1.99500
H          0.98520        4.60910        0.13480
H          2.32800        4.31370       -2.60880
H          3.01800        1.90180       -3.17140
H          5.38600       -1.24820       -7.71490
H          6.50500       -2.32670       -6.89210
H          3.51530       -2.86250       -7.27310
H          4.64820       -3.94360       -6.46380
H          4.82190       -3.61550       -8.19200
H         -0.48750       -0.54410        5.85570
H         -1.58400       -0.13110        4.52560
H          0.56230        1.70860        5.69090
H         -0.51260        2.11760        4.35010
H         -1.17730        1.84380        5.96630
H          2.78460       -3.42330        1.58830
H          4.10050       -5.06510        0.03990
