202

C          6.19170        0.63690        5.88520
C          6.17490       -0.66670        5.54030
C          4.93560       -1.06860        4.96240
C          4.55270       -2.33760        4.50560
C          5.45980       -3.47420        4.56420
S          7.02140       -3.42490        3.80100
C          7.39650       -5.04460        4.28280
C          8.71600       -5.65860        3.96860
C          9.76550       -5.26090        5.00930
C          6.36730       -5.57300        5.00210
Cl         6.37630       -7.15630        5.66280
C          5.26510       -4.68910        5.15860
Cl         3.87810       -5.10380        6.07550
C          3.26720       -2.46440        3.99590
C          2.34580       -1.38760        3.92520
C          2.72900       -0.12180        4.39120
C          1.84800        1.04170        4.36630
S          1.35940        1.79480        5.85360
C          0.55520        3.08410        5.02720
C         -0.09390        4.20070        5.77140
C         -0.83070        3.71530        7.01580
C          0.66340        2.91700        3.67970
C          1.38450        1.75260        3.29820
Cl         1.67380        1.32380        1.66170
Cl         0.04220        4.03540        2.53830
C          4.01380        0.00190        4.90590
S          4.71440        1.46320        5.54050
C          1.09850       -1.79250        3.38340
C          1.06040       -3.11190        3.04030
S          2.58080       -3.92360        3.35540
C         -0.01740       -3.88290        2.50230
C         -1.32610       -3.53940        2.32670
C         -2.10540       -4.57390        1.74820
C         -3.46050       -4.55380        1.37940
C         -4.34930       -3.43220        1.63390
S         -3.99960       -1.81030        1.12000
C         -5.53600       -1.22210        1.64810
C         -5.90840        0.21350        1.51430
C         -6.00780        0.88580        2.88380
C         -6.26110       -2.23140        2.20870
Cl        -7.84810       -2.04390        2.83460
C         -5.59310       -3.48230        2.20480
Cl        -6.26780       -4.87910        2.93450
C         -3.94600       -5.67110        0.70910
C         -3.18520       -6.83900        0.46680
C         -1.85800       -6.89540        0.92160
C         -1.03000       -8.07770        0.74440
S         -0.79270       -8.80800       -0.81640
C          0.26280      -10.02160       -0.17820
C          0.91400      -11.02490       -1.06470
C          2.23220      -10.48440       -1.62410
C          0.41790       -9.85330        1.16490
C         -0.31420       -8.75560        1.69210
Cl        -0.34210       -8.39060        3.36670
Cl         1.38990      -10.86890        2.14860
C         -1.34490       -5.74820        1.51750
S          0.30900       -5.52800        1.99740
C         -3.91120       -7.79860       -0.29250
C         -5.13970       -7.36540       -0.68320
S         -5.50490       -5.77360       -0.04620
C         -6.09550       -7.94260       -1.61380
C         -6.41150       -9.31160       -1.68390
N         -5.82190      -10.22700       -0.84430
C         -7.30610       -9.72900       -2.67430
C         -7.86780       -8.84370       -3.56970
C         -7.58270       -7.47830       -3.49640
C         -6.69560       -7.06780       -2.50850
C         -8.07820       -6.49970       -4.45680
C         -8.16240       -5.19890       -4.14810
C         -8.26610       -4.04910       -5.03420
C         -8.99800       -3.98670       -6.23540
N         -9.79820       -5.03010       -6.63520
C         -8.85860       -2.85340       -7.04340
C         -8.01630       -1.82010       -6.69970
C         -7.31250       -1.84390       -5.48960
C         -7.48300       -2.96070       -4.67400
C         -6.37100       -0.80480       -5.13920
C         -5.89600       -0.59430       -3.89580
C         -4.82400        0.28230       -3.54740
C         -3.89370        0.89000       -4.34170
C         -2.89410        1.59020       -3.62480
C         -1.77730        2.28040       -4.13150
C         -1.59270        2.48570       -5.55710
S         -0.07480        2.14700       -6.33560
C         -0.65680        2.67380       -7.87810
C          0.20630        2.60590       -9.08940
C          0.23030        1.19070       -9.67110
C         -1.95480        3.07690       -7.78110
Cl        -2.87510        3.67040       -9.10300
C         -2.48700        2.97850       -6.46750
Cl        -4.06790        3.52110       -6.07480
C         -0.86370        2.76910       -3.20580
C         -1.05920        2.66390       -1.80910
C         -2.19990        2.02450       -1.30270
C         -2.40310        1.96430        0.14550
S         -3.20150        3.26140        0.97790
C         -2.90800        2.54820        2.52580
C         -3.31370        3.21160        3.79820
C         -3.50600        4.71350        3.63560
C         -2.25160        1.36310        2.37920
C         -1.94770        1.03340        1.03050
Cl        -1.07180       -0.36820        0.56730
Cl        -1.82730        0.36430        3.70920
C         -3.08120        1.48620       -2.22080
S         -4.50780        0.56910       -1.84290
C         -0.00650        3.25730       -1.07200
C          0.96670        3.79420       -1.85730
S          0.61810        3.60890       -3.56840
C          2.17060        4.43660       -1.44700
C          3.19390        4.85240       -2.24460
C          4.26610        5.43930       -1.52960
C          5.44600        5.99780       -2.04750
C          5.71640        5.97080       -3.47530
S          5.65400        4.47880       -4.36790
C          6.03820        5.26250       -5.86210
C          6.07610        4.49670       -7.13830
C          4.65950        4.18240       -7.62650
C          6.20270        6.60040       -5.66420
Cl         6.58330        7.71480       -6.91250
C          6.02780        7.00530       -4.31280
Cl         6.10970        8.64740       -3.83040
C          6.32810        6.56310       -1.13420
C          6.06760        6.61280        0.25620
C          4.88340        6.06270        0.77260
C          4.56160        6.14700        2.18890
S          4.53750        7.69110        2.99100
C          4.04580        6.99240        4.49530
C          3.87790        7.82630        5.71720
C          5.22690        8.08810        6.39090
C          3.92230        5.64170        4.36890
C          4.20340        5.15810        3.06200
Cl         4.16770        3.48850        2.67580
Cl         3.48160        4.60120        5.66010
C          4.01300        5.47350       -0.13600
S          2.47450        4.75930        0.24520
C          7.14810        7.20880        0.97000
C          8.16550        7.57960        0.16610
S          7.88650        7.24240       -1.50600
H          6.99410        1.18890        6.33450
H          7.00440       -1.33370        5.68660
H          8.60260       -6.74410        3.96000
H          9.04270       -5.33180        2.97990
H         10.72100       -5.72030        4.77090
H          9.89120       -4.18080        5.02420
H          9.45770       -5.58970        5.99870
H         -0.77920        4.71610        5.09570
H          0.67670        4.91800        6.07090
H         -0.13290        3.24800        7.70670
H         -1.31010        4.55170        7.51780
H         -1.59200        2.98400        6.75400
H          0.26980       -1.12290        3.25460
H         -1.72400       -2.57740        2.59160
H         -5.15790        0.71850        0.90540
H         -6.87130        0.28860        1.00330
H         -5.08180        0.74270        3.43480
H         -6.19120        1.94990        2.76010
H         -6.82140        0.45630        3.46110
H          0.24210      -11.27070       -1.88880
H          1.10740      -11.93040       -0.48620
H          2.05400       -9.58210       -2.20420
H          2.69810      -11.22690       -2.26630
H          2.91530      -10.24650       -0.81270
H         -3.49630       -8.73970       -0.60420
H         -5.44910       -9.86900        0.02060
H         -6.27630      -11.12320       -0.77370
H         -7.55000      -10.78060       -2.73550
H         -8.54540       -9.21060       -4.32730
H         -6.40110       -6.03150       -2.46020
H         -8.27480       -6.86020       -5.45730
H         -7.96820       -4.91770       -3.12000
H        -10.11130       -5.65470       -5.90930
H        -10.47940       -4.82300       -7.34790
H         -9.41670       -2.80780       -7.96850
H         -7.91250       -0.97180       -7.36060
H         -6.92570       -3.02740       -3.75200
H         -6.01780       -0.18810       -5.95530
H         -6.32040       -1.13620       -3.06150
H         -3.89170        0.79570       -5.41150
H         -0.18280        3.30220       -9.83440
H          1.22200        2.90650       -8.82520
H          0.61700        0.48850       -8.93640
H          0.86470        1.15990      -10.55280
H         -0.77300        0.88170       -9.95310
H         -4.24270        2.76720        4.16720
H         -2.53960        3.00740        4.54170
H         -2.59830        5.17390        3.25360
H         -4.31240        4.91870        2.93540
H         -3.75390        5.16570        4.59260
H          0.03250        3.26840        0.00160
H          3.17040        4.74090       -3.31320
H          6.62100        3.56280       -6.98700
H          6.60190        5.09130       -7.88700
H          4.10610        5.10300       -7.79430
H          4.70190        3.62560       -8.55890
H          4.12870        3.58740       -6.88670
H          3.41700        8.77810        5.44750
H          3.21920        7.29980        6.40990
H          5.69260        7.14860        6.67750
H          5.89220        8.61430        5.71060
H          5.08820        8.69440        7.28180
H          7.15500        7.33640        2.03680
H          9.09090        8.04330        0.44670
