234

C         -1.75320       -7.56260       19.07990
C         -1.10430       -6.51690       18.53090
C         -1.42890       -6.32130       17.15440
C         -0.97170       -5.31740       16.28950
C          0.03700       -4.33640       16.70920
C          1.23970       -4.74910       17.27510
C          2.20470       -3.83470       17.65130
C          2.00070       -2.47130       17.47310
S          3.13270       -1.19940       17.93000
C          4.72500       -2.07080       18.13130
C          5.27690       -2.57300       16.81080
C          0.78580       -2.07160       16.91370
F          0.54640       -0.75600       16.74280
C         -0.18170       -2.97240       16.53030
C         -1.50430       -5.30990       15.00800
C         -2.44700       -6.26270       14.55470
C         -2.89990       -7.27050       15.41790
C         -3.89590       -8.25920       14.98760
C         -5.09530       -7.85790       14.40650
C         -6.04350       -8.78140       14.01070
C         -5.82560      -10.14340       14.18390
S         -6.93470      -11.42540       13.70020
C         -8.53630      -10.57260       13.49320
C         -9.10460      -10.08910       14.81370
C         -4.61480      -10.53170       14.75990
C         -3.66390       -9.62150       15.16230
F         -4.36180      -11.84490       14.92670
C         -2.37010       -7.27560       16.70110
S         -2.80210       -8.38680       17.97640
C         -2.77770       -6.06900       13.18400
C         -2.13850       -5.02140       12.60450
S         -1.07010       -4.20400       13.73420
C         -2.20050       -4.53920       11.23320
C         -3.39050       -4.49320       10.49570
C         -4.71470       -4.90110       11.06710
C         -3.33640       -4.01930        9.19200
C         -2.15440       -3.59540        8.60660
C         -0.96790       -3.62680        9.34460
C         -1.01720       -4.09030       10.64460
C          0.32280       -3.17290        8.73410
C         -2.13850       -3.10190        7.21150
C         -2.36350       -1.75220        6.92990
C         -2.70030       -0.79030        8.02770
C         -2.26180       -1.33210        5.61770
C         -1.96390       -2.20860        4.57290
C         -1.75910       -3.56590        4.85580
C         -1.84990       -3.97850        6.17750
C         -1.40020       -4.57080        3.80380
C         -1.81040       -1.65760        3.23560
C         -2.16610       -2.17140        2.02980
C         -1.79370       -1.36090        0.92190
C         -1.96970       -1.63000       -0.44510
C         -2.54440       -2.89170       -0.92790
C         -2.07090       -4.11910       -0.46580
C         -2.56410       -5.30040       -0.97720
C         -3.55050       -5.30740       -1.96050
S         -4.12730       -6.87950       -2.53580
C         -4.23550       -6.65590       -4.35010
C         -2.90980       -6.22810       -4.94810
C         -4.03880       -4.07680       -2.38750
F         -5.02420       -4.00880       -3.30950
C         -3.54190       -2.88640       -1.89760
C         -1.51470       -0.66530       -1.33260
C         -0.86620        0.52050       -0.91270
C         -0.66610        0.77970        0.45240
C          0.05690        1.98570        0.87490
C         -0.47510        2.87020        1.81060
C          0.19440        4.02970        2.13880
C          1.41590        4.35860        1.55060
S          2.12540        5.91650        1.98240
C          3.93990        5.65740        1.82540
C          4.65390        6.72810        2.62610
C          1.94150        3.45930        0.62800
C          1.28870        2.28870        0.30220
F          3.11150        3.70840       -0.00190
C         -1.15810       -0.16470        1.33880
S         -1.01700       -0.09870        3.07200
C         -0.46550        1.32040       -2.01020
C         -0.74290        0.76860       -3.22340
S         -1.56750       -0.77110       -3.07740
C         -0.36190        1.30190       -4.48880
C         -0.63860        0.84410       -5.74140
C         -0.00450        1.58990       -6.76950
C         -0.08310        1.40990       -8.16120
C         -0.82920        0.29250       -8.75020
C         -0.65680       -1.00580       -8.27430
C         -1.34790       -2.06600       -8.82540
C         -2.24190       -1.86690       -9.87140
S         -3.16580       -3.15290      -10.65080
C         -3.39200       -4.37220       -9.30810
C         -4.19140       -3.80480       -8.15140
C         -2.38620       -0.56730      -10.35580
F         -3.22850       -0.33900      -11.38260
C         -1.70380        0.49960       -9.81460
C          0.60900        2.32220       -8.94520
C          1.39190        3.37960       -8.41550
C          1.47010        3.55820       -7.02750
C          2.21840        4.64830       -6.38860
C          1.98780        5.98120       -6.72210
C          2.58120        6.99510       -5.99890
C          3.43950        6.72020       -4.93700
S          4.10550        8.08070       -4.02320
C          3.95500        7.52410       -2.28200
C          2.53560        7.13210       -1.92420
C          3.72890        5.38460       -4.67370
C          3.11750        4.36080       -5.36620
F          4.61890        5.04790       -3.71740
C          0.76830        2.65420       -6.24500
S          0.69060        2.70380       -4.50640
C          2.06430        4.10770       -9.43090
C          1.80560        3.65060      -10.68710
S          0.70570        2.28300      -10.68470
C          2.31010        4.11300      -11.93790
C          1.92640        3.67790      -13.16980
C          2.63310        4.28610      -14.23680
C          2.45840        4.07150      -15.61330
C          1.49840        3.06940      -16.08850
C          1.50550        1.78070      -15.55840
C          0.56330        0.84620      -15.93680
C         -0.43070        1.16870      -16.85470
S         -1.70940        0.07480      -17.37400
C         -1.82430       -1.13800      -16.01000
C         -2.28310       -0.50970      -14.70900
C         -0.39400        2.44610      -17.41670
F         -1.32090        2.78600      -18.33360
C          0.54430        3.38640      -17.05230
C          3.23680        4.84430      -16.46250
C          4.18450        5.78880      -15.99720
C          4.36110        5.99770      -14.62080
C          5.32350        6.97880      -14.10400
C          5.32100        8.29890      -14.55250
C          6.21160        9.21570      -14.03860
C          7.15070        8.85630      -13.07100
S          8.26020       10.11600      -12.52860
C          8.67330        9.64680      -10.80030
C          9.14520       10.88250      -10.05980
C          7.15840        7.52890      -12.65320
C          6.25490        6.60690      -13.14120
F          8.06880        7.08540      -11.75660
C          3.57760        5.23190      -13.77030
S          3.57220        5.32680      -12.02510
C          4.89960        6.38730      -17.07730
C          4.50600        5.93200      -18.28390
S          3.24650        4.74850      -18.20440
H         -1.69040       -7.92240       20.08840
H         -0.42900       -5.88040       19.07340
H          1.43200       -5.80370       17.40460
H          3.12020       -4.19650       18.09090
H          5.37670       -1.30920       18.55950
H          4.60010       -2.86870       18.86230
H          4.60290       -3.29490       16.35420
H          5.40820       -1.74330       16.12020
H          6.24210       -3.05010       16.97010
H         -1.10370       -2.60460       16.10870
H         -5.29960       -6.80510       14.28090
H         -6.95690       -8.42810       13.55990
H         -8.41530       -9.76660       12.77050
H         -9.17490      -11.33830       13.05280
H        -10.07520       -9.62420       14.65140
H         -9.22930      -10.92630       15.49630
H         -8.44400       -9.36180       15.28130
H         -2.74370       -9.98050       15.59500
H         -3.42640       -6.73670       12.64870
H         -5.52020       -4.38130       10.55280
H         -4.76890       -4.67360       12.12940
H         -4.87420       -5.97200       10.93880
H         -4.24720       -3.97550        8.61050
H         -0.10800       -4.12000       11.22890
H          0.21970       -2.17620        8.30760
H          0.61430       -3.84320        7.92580
H          1.11600       -3.15820        9.47720
H         -1.99870       -0.88530        8.85470
H         -3.69490       -1.00190        8.41980
H         -2.68240        0.23370        7.66330
H         -2.41650       -0.28760        5.38460
H         -1.67560       -5.01880        6.41620
H         -0.89660       -5.42240        4.25560
H         -2.29580       -4.94060        3.30400
H         -0.74670       -4.13350        3.05190
H         -2.72150       -3.08340        1.91660
H         -1.28200       -4.14430        0.27010
H         -2.18310       -6.24810       -0.62940
H         -4.52620       -7.64460       -4.70520
H         -5.03250       -5.94990       -4.57390
H         -2.63610       -5.22920       -4.61240
H         -2.98180       -6.22000       -6.03420
H         -2.12080       -6.91870       -4.65770
H         -3.96100       -1.96190       -2.26270
H         -1.42910        2.65640        2.26710
H         -0.22710        4.71770        2.85500
H          4.15750        4.66310        2.21210
H          4.20970        5.71160        0.77180
H          4.39760        7.71770        2.25420
H          4.37530        6.67180        3.67590
H          5.72980        6.59160        2.54080
H          1.75480        1.61920       -0.40420
H          0.01020        2.27920       -1.90990
H         -1.28980        0.00710       -5.91920
H          0.05070       -1.19320       -7.48100
H         -1.17720       -3.05930       -8.44130
H         -3.93150       -5.18440       -9.79520
H         -2.41550       -4.74170       -8.99660
H         -3.65580       -2.98880       -7.67030
H         -4.37820       -4.57980       -7.41080
H         -5.14780       -3.42710       -8.50560
H         -1.88000        1.48650      -10.21150
H          1.30080        6.22100       -7.51930
H          2.37180        8.02740       -6.23270
H          4.27570        8.39940       -1.71680
H          4.65800        6.71180       -2.10940
H          2.46620        6.93390       -0.85660
H          2.23210        6.23390       -2.45940
H          1.84280        7.93380       -2.17180
H          3.36590        3.34260       -5.11070
H          2.72890        4.92980       -9.23290
H          1.14170        2.95590      -13.30820
H          2.27240        1.50030      -14.85200
H          0.60730       -0.14270      -15.50990
H         -0.86700       -1.64870      -15.91200
H         -2.56110       -1.85280      -16.37620
H         -1.56440        0.22430      -14.35050
H         -3.24020       -0.01270      -14.84580
H         -2.40220       -1.27720      -13.94720
H          0.50300        4.36790      -17.49720
H          4.59340        8.61190      -15.28580
H          6.19740       10.24010      -14.37720
H          7.76870        9.24000      -10.35100
H          9.44960        8.88360      -10.82620
H          8.36810       11.64350      -10.05070
H         10.02990       11.29870      -10.53650
H          9.39210       10.62130       -9.03300
H          6.31190        5.59080      -12.78320
H          5.68250        7.11030      -16.93790
H          4.87910        6.21630      -19.24840
