
  xtb     02282221303D
 energy: -272.848349629403 gnorm: 0.000305153228 xtb: 6.4.1 (unknown)
131145  0     0  0            999 V2000
    2.6498    9.8878   11.1261 C   0  0  0  0  0  0  0  0  0  0  0  0
    0.9377    9.6747   10.9453 S   0  0  0  0  0  0  0  0  0  0  0  0
    1.2128    8.2486   10.0128 C   0  0  0  0  0  0  0  0  0  0  0  0
    0.5386    7.2357    9.3248 C   0  0  0  0  0  0  0  0  0  0  0  0
    1.5246    6.3859    8.7882 C   0  0  0  0  0  0  0  0  0  0  0  0
    2.7684    6.8374    9.1435 N   0  0  0  0  0  0  0  0  0  0  0  0
    4.0232    6.2968    8.6908 C   0  0  0  0  0  0  0  0  0  0  0  0
    4.4072    6.8460    7.3179 C   0  0  0  0  0  0  0  0  0  0  0  0
    2.5871    7.9823    9.8730 C   0  0  0  0  0  0  0  0  0  0  0  0
    3.4030    8.9332   10.5179 C   0  0  0  0  0  0  0  0  0  0  0  0
    1.0007    5.3180    8.0531 C   0  0  0  0  0  0  0  0  0  0  0  0
   -0.3764    5.3322    8.0265 C   0  0  0  0  0  0  0  0  0  0  0  0
   -1.0453    6.6973    8.9190 S   0  0  0  0  0  0  0  0  0  0  0  0
   -1.1797    4.4104    7.2892 C   0  0  0  0  0  0  0  0  0  0  0  0
   -0.3810    3.4385    6.0853 S   0  0  0  0  0  0  0  0  0  0  0  0
   -1.8708    2.6911    5.5898 C   0  0  0  0  0  0  0  0  0  0  0  0
   -2.9274    3.1892    6.3262 C   0  0  0  0  0  0  0  0  0  0  0  0
   -2.5337    4.1407    7.2975 C   0  0  0  0  0  0  0  0  0  0  0  0
   -3.5007    4.6697    8.3194 C   0  0  0  0  0  0  0  0  0  0  0  0
   -3.3313    3.8482    9.6026 C   0  0  0  0  0  0  0  0  0  0  0  0
   -3.4306    2.5218    9.4102 F   0  0  0  0  0  0  0  0  0  0  0  0
   -4.2517    4.1595   10.5298 F   0  0  0  0  0  0  0  0  0  0  0  0
   -2.1377    4.0406   10.1795 F   0  0  0  0  0  0  0  0  0  0  0  0
   -4.9474    4.6264    7.8203 C   0  0  0  0  0  0  0  0  0  0  0  0
   -5.2987    3.2750    7.2068 C   0  0  0  0  0  0  0  0  0  0  0  0
   -4.3788    2.9131    6.0354 C   0  0  0  0  0  0  0  0  0  0  0  0
   -4.7709    3.6915    4.7747 C   0  0  0  0  0  0  0  0  0  0  0  0
   -4.1551    3.2284    3.6770 F   0  0  0  0  0  0  0  0  0  0  0  0
   -6.0889    3.6031    4.5179 F   0  0  0  0  0  0  0  0  0  0  0  0
   -4.4877    4.9990    4.8381 F   0  0  0  0  0  0  0  0  0  0  0  0
   -1.8024    1.7087    4.5520 C   0  0  0  0  0  0  0  0  0  0  0  0
   -0.4302    1.7949    3.4503 S   0  0  0  0  0  0  0  0  0  0  0  0
   -0.9822    0.3917    2.6217 C   0  0  0  0  0  0  0  0  0  0  0  0
   -0.6555   -0.4628    1.5655 C   0  0  0  0  0  0  0  0  0  0  0  0
   -1.6661   -1.4429    1.5157 C   0  0  0  0  0  0  0  0  0  0  0  0
   -2.5985   -1.2025    2.4892 N   0  0  0  0  0  0  0  0  0  0  0  0
   -3.6993   -2.0652    2.8297 C   0  0  0  0  0  0  0  0  0  0  0  0
   -3.2547   -3.1969    3.7545 C   0  0  0  0  0  0  0  0  0  0  0  0
   -2.1781   -0.0993    3.1833 C   0  0  0  0  0  0  0  0  0  0  0  0
   -2.6318    0.6455    4.2786 C   0  0  0  0  0  0  0  0  0  0  0  0
   -1.4709   -2.3961    0.5074 C   0  0  0  0  0  0  0  0  0  0  0  0
   -0.3070   -2.1664   -0.1800 C   0  0  0  0  0  0  0  0  0  0  0  0
    0.5447   -0.7262    0.3578 S   0  0  0  0  0  0  0  0  0  0  0  0
    0.1948   -2.9071   -1.3060 C   0  0  0  0  0  0  0  0  0  0  0  0
    0.6225   -1.9963   -2.7264 S   0  0  0  0  0  0  0  0  0  0  0  0
    0.9500   -3.4421   -3.6204 C   0  0  0  0  0  0  0  0  0  0  0  0
    0.7184   -4.5554   -2.8546 C   0  0  0  0  0  0  0  0  0  0  0  0
    0.3381   -4.2579   -1.5173 C   0  0  0  0  0  0  0  0  0  0  0  0
    0.2979   -5.4057   -0.5358 C   0  0  0  0  0  0  0  0  0  0  0  0
    0.5758   -5.0145    0.9172 C   0  0  0  0  0  0  0  0  0  0  0  0
    1.4669   -4.0305    1.0541 F   0  0  0  0  0  0  0  0  0  0  0  0
    1.0600   -6.0492    1.6307 F   0  0  0  0  0  0  0  0  0  0  0  0
   -0.5303   -4.6464    1.5863 F   0  0  0  0  0  0  0  0  0  0  0  0
    1.3786   -6.4080   -0.9819 C   0  0  0  0  0  0  0  0  0  0  0  0
    1.0317   -7.0224   -2.3301 C   0  0  0  0  0  0  0  0  0  0  0  0
    0.7220   -5.9562   -3.3982 C   0  0  0  0  0  0  0  0  0  0  0  0
   -0.6669   -6.2307   -3.9770 C   0  0  0  0  0  0  0  0  0  0  0  0
   -0.9949   -5.3916   -4.9674 F   0  0  0  0  0  0  0  0  0  0  0  0
   -1.6378   -6.1239   -3.0542 F   0  0  0  0  0  0  0  0  0  0  0  0
   -0.7668   -7.4685   -4.4841 F   0  0  0  0  0  0  0  0  0  0  0  0
    1.3055   -3.3819   -5.0206 C   0  0  0  0  0  0  0  0  0  0  0  0
    0.1515   -2.6492   -6.0966 S   0  0  0  0  0  0  0  0  0  0  0  0
    1.0785   -3.0873   -7.5006 C   0  0  0  0  0  0  0  0  0  0  0  0
    2.2335   -3.7383   -7.1248 C   0  0  0  0  0  0  0  0  0  0  0  0
    2.3802   -3.8745   -5.7164 C   0  0  0  0  0  0  0  0  0  0  0  0
    3.7001   -4.3890   -5.1935 C   0  0  0  0  0  0  0  0  0  0  0  0
    4.0645   -3.8752   -3.8027 C   0  0  0  0  0  0  0  0  0  0  0  0
    3.4594   -4.5523   -2.8136 F   0  0  0  0  0  0  0  0  0  0  0  0
    5.3787   -4.0148   -3.5524 F   0  0  0  0  0  0  0  0  0  0  0  0
    3.7871   -2.5807   -3.6252 F   0  0  0  0  0  0  0  0  0  0  0  0
    4.7829   -3.9253   -6.1828 C   0  0  0  0  0  0  0  0  0  0  0  0
    4.5968   -4.6121   -7.5270 C   0  0  0  0  0  0  0  0  0  0  0  0
    3.1656   -4.4403   -8.0723 C   0  0  0  0  0  0  0  0  0  0  0  0
    2.5625   -5.8222   -8.3362 C   0  0  0  0  0  0  0  0  0  0  0  0
    2.4643   -6.5510   -7.2068 F   0  0  0  0  0  0  0  0  0  0  0  0
    3.3047   -6.5488   -9.1847 F   0  0  0  0  0  0  0  0  0  0  0  0
    1.3323   -5.7678   -8.8555 F   0  0  0  0  0  0  0  0  0  0  0  0
    0.5525   -2.7216   -8.7782 C   0  0  0  0  0  0  0  0  0  0  0  0
    1.5081   -2.7346  -10.2594 S   0  0  0  0  0  0  0  0  0  0  0  0
    0.1667   -2.1376  -11.1573 C   0  0  0  0  0  0  0  0  0  0  0  0
   -0.2149   -1.7739  -12.4514 C   0  0  0  0  0  0  0  0  0  0  0  0
   -1.5614   -1.3728  -12.3733 C   0  0  0  0  0  0  0  0  0  0  0  0
   -2.0012   -1.4630  -11.0798 N   0  0  0  0  0  0  0  0  0  0  0  0
   -3.3447   -1.2423  -10.6119 C   0  0  0  0  0  0  0  0  0  0  0  0
   -4.1693   -2.5276  -10.6507 C   0  0  0  0  0  0  0  0  0  0  0  0
   -0.9587   -1.9445  -10.3330 C   0  0  0  0  0  0  0  0  0  0  0  0
   -0.7310   -2.2711   -8.9925 C   0  0  0  0  0  0  0  0  0  0  0  0
   -2.0921   -0.9751  -13.6169 C   0  0  0  0  0  0  0  0  0  0  0  0
   -1.1580   -1.0781  -14.5993 C   0  0  0  0  0  0  0  0  0  0  0  0
    0.3877   -1.6546  -14.0643 S   0  0  0  0  0  0  0  0  0  0  0  0
    2.9980   10.7321   11.6870 H   0  0  0  0  0  0  0  0  0  0  0  0
    3.9316    5.2080    8.6464 H   0  0  0  0  0  0  0  0  0  0  0  0
    4.7896    6.5518    9.4272 H   0  0  0  0  0  0  0  0  0  0  0  0
    4.5005    7.9288    7.3578 H   0  0  0  0  0  0  0  0  0  0  0  0
    3.6455    6.5911    6.5849 H   0  0  0  0  0  0  0  0  0  0  0  0
    5.3558    6.4237    6.9982 H   0  0  0  0  0  0  0  0  0  0  0  0
    4.4776    8.9211   10.5337 H   0  0  0  0  0  0  0  0  0  0  0  0
    1.5800    4.5581    7.5602 H   0  0  0  0  0  0  0  0  0  0  0  0
   -3.2503    5.6976    8.5948 H   0  0  0  0  0  0  0  0  0  0  0  0
   -5.6241    4.8354    8.6504 H   0  0  0  0  0  0  0  0  0  0  0  0
   -5.0721    5.4184    7.0820 H   0  0  0  0  0  0  0  0  0  0  0  0
   -6.3339    3.2917    6.8611 H   0  0  0  0  0  0  0  0  0  0  0  0
   -5.2162    2.4898    7.9580 H   0  0  0  0  0  0  0  0  0  0  0  0
   -4.5314    1.8622    5.7804 H   0  0  0  0  0  0  0  0  0  0  0  0
   -4.4717   -1.4596    3.3109 H   0  0  0  0  0  0  0  0  0  0  0  0
   -4.1087   -2.4779    1.9037 H   0  0  0  0  0  0  0  0  0  0  0  0
   -2.4763   -3.7853    3.2750 H   0  0  0  0  0  0  0  0  0  0  0  0
   -2.8600   -2.7918    4.6833 H   0  0  0  0  0  0  0  0  0  0  0  0
   -4.0958   -3.8450    3.9839 H   0  0  0  0  0  0  0  0  0  0  0  0
   -3.4966    0.3881    4.8606 H   0  0  0  0  0  0  0  0  0  0  0  0
   -2.1378   -3.2072    0.2804 H   0  0  0  0  0  0  0  0  0  0  0  0
   -0.6859   -5.8920   -0.5442 H   0  0  0  0  0  0  0  0  0  0  0  0
    1.4731   -7.2130   -0.2536 H   0  0  0  0  0  0  0  0  0  0  0  0
    2.3327   -5.8826   -1.0440 H   0  0  0  0  0  0  0  0  0  0  0  0
    1.8632   -7.6419   -2.6627 H   0  0  0  0  0  0  0  0  0  0  0  0
    0.1648   -7.6752   -2.2071 H   0  0  0  0  0  0  0  0  0  0  0  0
    1.4094   -6.0300   -4.2446 H   0  0  0  0  0  0  0  0  0  0  0  0
    3.7058   -5.4848   -5.1315 H   0  0  0  0  0  0  0  0  0  0  0  0
    5.7749   -4.1648   -5.8003 H   0  0  0  0  0  0  0  0  0  0  0  0
    4.7100   -2.8417   -6.2979 H   0  0  0  0  0  0  0  0  0  0  0  0
    4.8195   -5.6753   -7.4136 H   0  0  0  0  0  0  0  0  0  0  0  0
    5.3102   -4.2038   -8.2415 H   0  0  0  0  0  0  0  0  0  0  0  0
    3.1858   -3.9281   -9.0352 H   0  0  0  0  0  0  0  0  0  0  0  0
   -3.2923   -0.8608   -9.5884 H   0  0  0  0  0  0  0  0  0  0  0  0
   -3.8051   -0.4791  -11.2446 H   0  0  0  0  0  0  0  0  0  0  0  0
   -4.2274   -2.9078  -11.6679 H   0  0  0  0  0  0  0  0  0  0  0  0
   -5.1759   -2.3364  -10.2897 H   0  0  0  0  0  0  0  0  0  0  0  0
   -3.7101   -3.2879  -10.0233 H   0  0  0  0  0  0  0  0  0  0  0  0
   -1.4576   -2.2017   -8.2032 H   0  0  0  0  0  0  0  0  0  0  0  0
   -3.0982   -0.6361  -13.7833 H   0  0  0  0  0  0  0  0  0  0  0  0
   -1.2793   -0.8471  -15.6389 H   0  0  0  0  0  0  0  0  0  0  0  0
  1  2  1  0  0  0  0
  2  3  1  0  0  0  0
  3  4  1  0  0  0  0
  4  5  2  0  0  0  0
  5  6  1  0  0  0  0
  6  7  1  0  0  0  0
  7  8  1  0  0  0  0
  6  9  1  0  0  0  0
  9 10  1  0  0  0  0
  5 11  1  0  0  0  0
 11 12  2  0  0  0  0
 12 13  1  0  0  0  0
 12 14  1  0  0  0  0
 14 15  1  0  0  0  0
 15 16  1  0  0  0  0
 16 17  2  0  0  0  0
 17 18  1  0  0  0  0
 18 19  1  0  0  0  0
 19 20  1  0  0  0  0
 20 21  1  0  0  0  0
 20 22  1  0  0  0  0
 20 23  1  0  0  0  0
 19 24  1  0  0  0  0
 24 25  1  0  0  0  0
 25 26  1  0  0  0  0
 26 27  1  0  0  0  0
 27 28  1  0  0  0  0
 27 29  1  0  0  0  0
 27 30  1  0  0  0  0
 16 31  1  0  0  0  0
 31 32  1  0  0  0  0
 32 33  1  0  0  0  0
 33 34  1  0  0  0  0
 34 35  2  0  0  0  0
 35 36  1  0  0  0  0
 36 37  1  0  0  0  0
 37 38  1  0  0  0  0
 36 39  1  0  0  0  0
 39 40  1  0  0  0  0
 35 41  1  0  0  0  0
 41 42  2  0  0  0  0
 42 43  1  0  0  0  0
 42 44  1  0  0  0  0
 44 45  1  0  0  0  0
 45 46  1  0  0  0  0
 46 47  2  0  0  0  0
 47 48  1  0  0  0  0
 48 49  1  0  0  0  0
 49 50  1  0  0  0  0
 50 51  1  0  0  0  0
 50 52  1  0  0  0  0
 50 53  1  0  0  0  0
 49 54  1  0  0  0  0
 54 55  1  0  0  0  0
 55 56  1  0  0  0  0
 56 57  1  0  0  0  0
 57 58  1  0  0  0  0
 57 59  1  0  0  0  0
 57 60  1  0  0  0  0
 46 61  1  0  0  0  0
 61 62  1  0  0  0  0
 62 63  1  0  0  0  0
 63 64  2  0  0  0  0
 64 65  1  0  0  0  0
 65 66  1  0  0  0  0
 66 67  1  0  0  0  0
 67 68  1  0  0  0  0
 67 69  1  0  0  0  0
 67 70  1  0  0  0  0
 66 71  1  0  0  0  0
 71 72  1  0  0  0  0
 72 73  1  0  0  0  0
 73 74  1  0  0  0  0
 74 75  1  0  0  0  0
 74 76  1  0  0  0  0
 74 77  1  0  0  0  0
 63 78  1  0  0  0  0
 78 79  1  0  0  0  0
 79 80  1  0  0  0  0
 80 81  1  0  0  0  0
 81 82  2  0  0  0  0
 82 83  1  0  0  0  0
 83 84  1  0  0  0  0
 84 85  1  0  0  0  0
 83 86  1  0  0  0  0
 86 87  1  0  0  0  0
 82 88  1  0  0  0  0
 88 89  2  0  0  0  0
 89 90  1  0  0  0  0
 10  1  2  0  0  0  0
 18 14  2  0  0  0  0
 40 31  2  0  0  0  0
 48 44  2  0  0  0  0
 65 61  2  0  0  0  0
 87 78  2  0  0  0  0
  9  3  2  0  0  0  0
 26 17  1  0  0  0  0
 39 33  2  0  0  0  0
 56 47  1  0  0  0  0
 73 64  1  0  0  0  0
 86 80  2  0  0  0  0
 13  4  1  0  0  0  0
 43 34  1  0  0  0  0
 90 81  1  0  0  0  0
  1 91  1  0  0  0  0
  7 92  1  0  0  0  0
  7 93  1  0  0  0  0
  8 94  1  0  0  0  0
  8 95  1  0  0  0  0
  8 96  1  0  0  0  0
 10 97  1  0  0  0  0
 11 98  1  0  0  0  0
 19 99  1  0  0  0  0
 24100  1  0  0  0  0
 24101  1  0  0  0  0
 25102  1  0  0  0  0
 25103  1  0  0  0  0
 26104  1  0  0  0  0
 37105  1  0  0  0  0
 37106  1  0  0  0  0
 38107  1  0  0  0  0
 38108  1  0  0  0  0
 38109  1  0  0  0  0
 40110  1  0  0  0  0
 41111  1  0  0  0  0
 49112  1  0  0  0  0
 54113  1  0  0  0  0
 54114  1  0  0  0  0
 55115  1  0  0  0  0
 55116  1  0  0  0  0
 56117  1  0  0  0  0
 66118  1  0  0  0  0
 71119  1  0  0  0  0
 71120  1  0  0  0  0
 72121  1  0  0  0  0
 72122  1  0  0  0  0
 73123  1  0  0  0  0
 84124  1  0  0  0  0
 84125  1  0  0  0  0
 85126  1  0  0  0  0
 85127  1  0  0  0  0
 85128  1  0  0  0  0
 87129  1  0  0  0  0
 88130  1  0  0  0  0
 89131  1  0  0  0  0
M  END
