216

C          2.11120       -7.24670        8.52330
S          1.77110       -7.63090        6.89050
C          0.91160       -6.13240        6.65600
C          0.91670       -5.39060        7.81810
C          1.60270       -6.03690        8.87950
C          1.59430       -5.40130       10.23840
C          1.90840       -6.40010       11.34100
F          3.15630       -6.88520       11.26530
F          1.08470       -7.45860       11.33350
F          1.79760       -5.84420       12.55750
C          0.19060       -4.81400       10.43910
C         -0.04670       -3.67200        9.45620
C          0.34260       -4.01440        7.99730
C          1.37620       -2.99280        7.52010
F          2.45080       -2.92890        8.32270
F          1.84740       -3.23240        6.29160
F          0.86460       -1.74800        7.48730
C          0.32300       -5.89710        5.37200
C          0.40680       -6.73750        4.29950
C         -0.28650       -6.28310        3.15100
C         -0.39880       -6.90570        1.89410
C          0.15470       -8.22820        1.66260
S          1.20620       -8.55290        0.31760
C          1.38650      -10.21530        0.76090
C          2.19510      -11.14780       -0.07090
C          1.39390      -11.62960       -1.28280
C          0.65600      -10.49160        1.87840
Cl         0.57330      -12.04050        2.61260
C         -0.03840       -9.36630        2.39710
Cl        -1.07780       -9.47350        3.75870
C         -1.06090       -6.19780        0.89860
C         -1.65200       -4.93080        1.12440
C         -1.57380       -4.32340        2.38840
C         -2.13710       -3.00610        2.63580
S         -1.14340       -1.73340        3.28560
C         -2.44030       -0.58600        3.23630
C         -2.23430        0.81000        3.70950
C         -1.93970        0.85400        5.20920
C         -3.57130       -1.17540        2.75600
C         -3.40150       -2.54280        2.40380
Cl        -4.69440       -3.50760        1.81250
Cl        -5.08060       -0.37750        2.58980
C         -0.88050       -5.01800        3.36770
S         -0.62730       -4.47100        4.99620
C         -2.23320       -4.40450       -0.05230
C         -2.11510       -5.22490       -1.13430
S         -1.27040       -6.70620       -0.75670
C         -2.57180       -4.85130       -2.44220
C         -3.66160       -4.06830       -2.67410
C         -3.73070       -3.57010       -3.99740
C         -4.60310       -2.57690       -4.47970
C         -5.72300       -2.13680       -3.66650
S         -5.97030       -0.46370       -3.26100
C         -7.34730       -0.82900       -2.27540
C         -8.12980        0.25300       -1.61760
C         -9.06050        0.93190       -2.62460
C         -7.59810       -2.16880       -2.28390
Cl        -8.89210       -2.90990       -1.43480
C         -6.67230       -2.91430       -3.06180
Cl        -6.79080       -4.61430       -3.26280
C         -4.25150       -1.97100       -5.67500
C         -3.12240       -2.36460       -6.43710
C         -2.31140       -3.42470       -5.99890
C         -1.08090       -3.76370       -6.70350
S         -0.79890       -5.34080       -7.37010
C          0.76520       -4.89320       -7.96220
C          1.64070       -5.88020       -8.65180
C          2.41270       -6.72440       -7.63470
C          1.04190       -3.59880       -7.63800
C         -0.00250       -2.95340       -6.92340
Cl         0.13170       -1.34030       -6.34180
Cl         2.49850       -2.79520       -8.05050
C         -2.63190       -4.00110       -4.77750
S         -1.61620       -5.10640       -3.88830
C         -2.83640       -1.44080       -7.47350
C         -3.64090       -0.33770       -7.45280
S         -4.97080       -0.51920       -6.31260
C         -3.25150        0.98450       -7.82600
C         -3.79630        2.12410       -7.30530
C         -2.85700        3.16950       -7.14260
C         -3.00150        4.30010       -6.32150
C         -4.26040        4.70440       -5.71950
S         -5.26080        3.60480       -4.81590
C         -6.35130        4.86400       -4.33980
C         -7.50330        4.57390       -3.44270
C         -7.02290        4.03420       -2.09530
C         -5.95360        6.05770       -4.86210
Cl        -6.78390        7.53970       -4.62090
C         -4.76480        5.97270       -5.63650
Cl        -4.07500        7.32880       -6.42420
C         -1.82400        4.91440       -5.91280
C         -0.54500        4.54870       -6.39040
C         -0.42570        3.54500       -7.37610
C          0.87580        3.18760       -7.90120
S          1.40650        1.53640       -8.03470
C          2.95540        1.99920       -8.64970
C          3.95970        0.96830       -9.02840
C          3.53480        0.22780      -10.29780
C          3.03890        3.35610       -8.75430
C          1.86840        4.03370       -8.32180
Cl         1.70980        5.73990       -8.40250
Cl         4.41780        4.19290       -9.34180
C         -1.58140        2.82680       -7.65970
S         -1.62130        1.26020       -8.42800
C          0.48910        5.02600       -5.54150
C          0.01920        5.65910       -4.42920
S         -1.71350        5.91210       -4.48960
C          0.67860        5.75880       -3.16130
C          0.06830        5.42790       -1.98650
C          0.97110        5.19410       -0.92480
C          0.67650        4.68550        0.35260
C         -0.67060        4.27310        0.71080
S         -1.57220        3.21660       -0.34280
C         -2.92110        3.15100        0.73830
C         -4.14970        2.37590        0.40700
C         -3.84220        1.10200       -0.37250
C         -2.67120        3.90740        1.84460
Cl        -3.78290        4.10370        3.13840
C         -1.39700        4.53880        1.83910
Cl        -0.89050        5.58130        3.10330
C          1.75450        4.50390        1.20890
C          3.08730        4.82490        0.85560
C          3.38070        5.30080       -0.43560
C          4.75030        5.58160       -0.83660
S          5.72840        6.70720        0.05830
C          7.07960        6.49820       -1.00240
C          8.37020        7.19570       -0.75070
C          9.18640        6.46260        0.31680
C          6.77880        5.59700       -1.97940
C          5.45790        5.07970       -1.89290
Cl         4.87340        3.87810       -2.96530
Cl         7.87220        5.11870       -3.21210
C          2.31120        5.45070       -1.30840
S          2.40820        5.92060       -2.98560
C          3.99980        4.47820        1.88120
C          3.42050        3.88750        2.96760
S          1.68330        3.76060        2.77630
C          4.12100        3.39920        4.11670
S          5.83230        3.71940        4.22360
C          5.96380        2.83700        5.68580
C          4.76800        2.32640        6.08220
C          3.70740        2.64680        5.19420
C          2.29920        2.23560        5.50970
C          1.64550        3.36940        6.30570
F          2.15950        3.49680        7.54010
F          0.32810        3.16930        6.46760
F          1.77940        4.56680        5.72430
C          2.19130        0.92250        6.32090
C          3.54020        0.32180        6.70900
C          4.48600        1.40990        7.23570
C          5.75280        0.78220        7.79330
F          5.48220       -0.10460        8.76290
F          6.58430        1.68470        8.33820
F          6.46240        0.12370        6.86450
H          2.66490       -7.94440        9.11790
H          2.35060       -4.60990       10.30560
H         -0.54350       -5.60760       10.28290
H          0.07760       -4.43790       11.45640
H         -1.09860       -3.39070        9.48820
H          0.53120       -2.80610        9.78520
H         -0.52270       -3.88780        7.34150
H          0.96920       -7.65290        4.32750
H          3.09810      -10.63900       -0.41290
H          2.48500      -12.00260        0.54240
H          0.49960      -12.15560       -0.95840
H          1.09620      -10.78370       -1.89780
H          1.99670      -12.30490       -1.88370
H         -1.39860        1.25800        3.16520
H         -3.13280        1.38760        3.49230
H         -2.78500        0.46550        5.77100
H         -1.06420        0.25300        5.44360
H         -1.75390        1.87680        5.52240
H         -2.67880       -3.42930       -0.10970
H         -4.36640       -3.81190       -1.90520
H         -8.71650       -0.18230       -0.80720
H         -7.44740        0.99340       -1.19630
H         -8.48100        1.34920       -3.44460
H         -9.61840        1.72970       -2.14220
H         -9.76550        0.21090       -3.02990
H          1.03030       -6.53380       -9.27720
H          2.34340       -5.34050       -9.28930
H          1.72210       -7.26560       -6.99260
H          3.04730       -7.44060       -8.14920
H          3.03750       -6.08760       -7.01350
H         -1.98960       -1.52530       -8.12950
H         -4.79280        2.15350       -6.90430
H         -8.15840        3.83720       -3.91400
H         -8.06940        5.49510       -3.29900
H         -6.37880        4.76290       -1.60840
H         -7.87130        3.83270       -1.44700
H         -6.46210        3.11360       -2.24400
H          4.06480        0.24870       -8.21340
H          4.92160        1.45850       -9.18680
H          2.58000       -0.26830      -10.14020
H          4.27800       -0.52070      -10.55920
H          3.43330        0.92400      -11.12670
H          1.52710        4.77620       -5.66860
H         -0.99460        5.29310       -1.90980
H         -4.82080        3.00690       -0.18400
H         -4.66230        2.13360        1.33980
H         -3.14440        0.47880        0.18170
H         -3.40280        1.34150       -1.33810
H         -4.75410        0.53530       -0.53990
H          8.17370        8.21670       -0.41880
H          8.93480        7.23300       -1.68390
H          9.40100        5.44660       -0.00470
H         10.12640        6.97990        0.48770
H          8.63410        6.42240        1.25270
H          5.06020        4.63880        1.80890
H          6.92160        2.75100        6.15700
H          1.71930        2.15130        4.58690
H          1.63920        0.18690        5.73770
H          1.61530        1.11090        7.22860
H          4.00540       -0.15110        5.84100
H          3.38490       -0.44180        7.47100
H          4.01610        1.95360        8.06370
