197

C         -3.72050       -4.79200       11.97630
C         -3.30940       -3.85400       11.09970
C         -3.83530       -4.05360        9.78940
C         -3.58400       -3.30810        8.62840
C         -2.70640       -2.14780        8.63070
S         -2.97550       -0.80060        9.69630
C         -1.62210        0.07250        9.06330
C         -1.29090        1.44410        9.53830
C         -2.02630        2.50060        8.70990
C         -1.01120       -0.64960        8.08230
Cl         0.37150       -0.11140        7.22230
C         -1.62040       -1.90940        7.83440
Cl        -0.98960       -3.03190        6.70240
C         -4.21200       -3.72800        7.46150
C         -5.05240       -4.86520        7.40300
C         -5.26280       -5.64100        8.55440
C         -6.04750       -6.86310        8.50810
S         -7.33300       -7.16580        9.63800
C         -7.67760       -8.71600        8.95210
C         -8.79160       -9.55870        9.46670
C        -10.11830       -9.17920        8.80440
C         -6.84300       -8.96690        7.90390
C         -5.91490       -7.92200        7.65150
Cl        -4.69550       -8.04660        6.44570
Cl        -6.88100      -10.40740        6.97190
C         -4.66410       -5.19890        9.72890
S         -4.76490       -5.98260       11.28060
C         -5.61020       -5.04480        6.10970
C         -5.19920       -4.11130        5.21070
S         -4.12620       -2.92700        5.92440
C         -5.48750       -3.99970        3.80530
S         -5.73900       -2.43160        3.11960
C         -5.91900       -3.10200        1.52690
C         -5.75120       -4.46570        1.53850
C         -5.52600       -4.97790        2.83920
C         -5.20380       -6.42670        3.07030
C         -3.68210       -6.56900        3.19680
F         -2.99940       -5.92060        2.24040
F         -3.22820       -6.08250        4.36030
F         -3.28360       -7.84860        3.14220
C         -5.76260       -7.29070        1.93710
C         -5.33440       -6.76450        0.57100
C         -5.84390       -5.34020        0.31540
C         -7.29340       -5.34980       -0.18140
F         -7.50860       -6.28670       -1.11920
F         -7.61760       -4.18120       -0.75460
F         -8.18810       -5.57320        0.78720
C         -5.96410       -2.17650        0.42060
S         -4.63900       -2.27120       -0.70760
C         -5.00140       -0.70570       -1.36970
C         -6.12200       -0.18030       -0.76580
C         -6.69710       -1.03340        0.21870
C         -8.01720       -0.61540        0.81670
C         -8.95960       -1.73440        1.25910
F        -10.06430       -1.19500        1.81350
F         -8.48290       -2.57440        2.18290
F         -9.38670       -2.48730        0.24160
C         -8.78440        0.15330       -0.27680
C         -8.08450        1.44950       -0.65460
C         -6.58170        1.24030       -0.92950
C         -5.78550        2.10170        0.06030
F         -5.97900        3.41120       -0.16420
F         -4.46510        1.89830        0.01540
F         -6.14760        1.87930        1.33490
C         -4.05310       -0.16850       -2.29740
C         -2.91840       -0.81630       -2.69520
C         -2.00940       -0.00070       -3.40600
C         -0.71730       -0.33000       -3.84460
C         -0.13000       -1.64390       -3.63200
S          0.56660       -2.53930       -4.94850
C          1.06090       -3.83180       -3.91080
C          1.81430       -5.00280       -4.43830
C          3.32360       -4.75290       -4.38430
C          0.71240       -3.56300       -2.62040
Cl         1.04600       -4.61000       -1.30100
C          0.03520       -2.32450       -2.45730
Cl        -0.43620       -1.72830       -0.91640
C          0.02680        0.69520       -4.40800
C         -0.44450        2.02270       -4.54680
C         -1.77030        2.33230       -4.18630
C         -2.31640        3.66210       -4.37410
S         -3.23780        4.44360       -3.12180
C         -3.50570        5.85330       -4.08870
C         -4.30570        6.99500       -3.56620
C         -5.67240        6.53670       -3.05870
C         -2.91110        5.71120       -5.30740
C         -2.23270        4.47370       -5.47450
Cl        -1.47580        4.03790       -6.95620
Cl        -2.96070        6.89770       -6.54720
C         -2.50590        1.31120       -3.59490
S         -4.10210        1.47020       -2.92270
C          0.59600        2.91560       -4.91460
C          1.80390        2.30470       -5.07360
S          1.70120        0.56960       -4.83920
C          3.12760        2.83420       -5.21600
S          4.38530        1.83480       -4.56650
C          5.60440        3.02670       -4.89600
C          5.03830        4.14240       -5.47760
C          3.64140        4.02460       -5.68580
C          2.85950        5.02590       -6.49210
C          2.58430        4.41000       -7.86940
F          3.69890        4.03010       -8.51110
F          1.95100        5.26590       -8.68540
F          1.80750        3.32030       -7.79660
C          3.58090        6.37190       -6.64020
C          5.08020        6.21240       -6.88320
C          5.76480        5.42410       -5.76210
C          5.82620        6.24000       -4.46450
F          4.62910        6.41540       -3.88160
F          6.33160        7.46660       -4.66330
F          6.59620        5.66040       -3.53390
C          6.93850        2.65380       -4.54010
C          7.22910        1.44270       -3.98030
C          8.59510        1.24850       -3.68880
C          9.18230        0.12770       -3.07880
C          8.34460       -0.98830       -2.66580
S          6.96960       -0.72490       -1.63150
C          6.46980       -2.37890       -1.73620
C          5.21980       -2.83890       -1.07030
C          4.00440       -2.04620       -1.55420
C          7.34110       -3.08440       -2.51080
Cl         7.17710       -4.75630       -2.86160
C          8.40940       -2.30260       -3.03260
Cl         9.59380       -2.94790       -4.08900
C         10.55690        0.16840       -2.89660
C         11.34690        1.28190       -3.27870
C         10.75450        2.40200       -3.88660
C         11.53190        3.57800       -4.24340
S         12.52240        4.38590       -3.06360
C         12.99830        5.61410       -4.18570
C         13.87650        6.74070       -3.76670
C         13.06570        7.83320       -3.06520
C         12.41200        5.39980       -5.39700
C         11.58170        4.24710       -5.43440
Cl        10.80320        3.72490       -6.86900
Cl        12.64630        6.40700       -6.76640
C          9.38010        2.35490       -4.08810
S          8.38590        3.61120       -4.77420
C         12.72170        1.07290       -2.96630
C         12.94920       -0.11380       -2.36630
S         11.52410       -1.06540       -2.14380
H         -3.47450       -4.87370       13.01680
H         -2.65300       -3.04320       11.35640
H         -1.57200        1.54270       10.58800
H         -0.21360        1.59560        9.44680
H         -1.77040        3.49580        9.06300
H         -3.10190        2.36520        8.79370
H         -1.74640        2.41910        7.66290
H         -8.56470      -10.60540        9.25610
H         -8.87380       -9.42770       10.54680
H        -10.05570       -9.31880        7.72830
H        -10.35670       -8.13800        9.00750
H        -10.91940       -9.80320        9.19070
H         -6.32600       -5.81320        5.88420
H         -5.60500       -6.77170        4.02640
H         -6.85070       -7.28560        2.01570
H         -5.41960       -8.31930        2.05710
H         -5.71040       -7.42860       -0.20840
H         -4.24760       -6.75920        0.49600
H         -5.26640       -4.89410       -0.50220
H         -7.85740        0.02070        1.69600
H         -8.86270       -0.49480       -1.15290
H         -9.79280        0.38360        0.06830
H         -8.21010        2.17320        0.15280
H         -8.56240        1.86450       -1.54110
H         -6.32140        1.60640       -1.92520
H         -2.71810       -1.84250       -2.44720
H          1.57010       -5.87990       -3.83600
H          1.51300       -5.19020       -5.47000
H          3.58230       -3.87000       -4.96400
H          3.64350       -4.60330       -3.35710
H          3.85750       -5.60620       -4.79310
H         -4.42570        7.72620       -4.36750
H         -3.76190        7.47330       -2.74690
H         -5.55540        5.82310       -2.24610
H         -6.23980        7.38880       -2.69500
H         -6.23340        6.06180       -3.85990
H          0.45120        3.97800       -4.96530
H          1.87290        5.19190       -6.05050
H          3.13970        6.92530       -7.47100
H          3.40820        6.95350       -5.73540
H          5.25550        5.68270       -7.81970
H          5.53810        7.19930       -6.96620
H          6.80710        5.22560       -6.03310
H          6.47460        0.70370       -3.78430
H          5.08760       -3.90120       -1.28260
H          5.31650       -2.71820        0.01180
H          3.88960       -2.13710       -2.63170
H          4.11820       -0.99310       -1.30820
H          3.10340       -2.41910       -1.07610
H         14.64590        6.36840       -3.08780
H         14.36090        7.15470       -4.65270
H         12.30100        8.22230       -3.73250
H         13.71850        8.64960       -2.76870
H         12.58130        7.43240       -2.17800
H         13.49570        1.78360       -3.18960
H         13.88760       -0.51180       -2.03300
