100

C          6.17250       -3.12440        1.63630
S          6.67580       -2.91990        0.00080
C          5.01530       -2.94040       -0.53270
C          4.15890       -3.13480        0.51340
C          4.82700       -3.23460        1.75250
N          4.67540       -2.86750       -1.86620
C          5.37180       -2.23560       -2.86600
C          6.15920       -1.14680       -2.77290
C          6.33590       -0.26770       -1.65440
S          5.07240        0.01430       -0.49550
C          6.02400        1.18530        0.37050
C          7.24390        1.37070       -0.24890
C          7.41440        0.54990       -1.38810
C          8.70130        0.49850       -2.16400
C          9.47960       -0.75730       -1.75500
F         10.75060       -0.73940       -2.19940
F          9.55440       -0.93660       -0.42890
F          8.93640       -1.87450       -2.25880
C          9.53950        1.76340       -1.95650
C          9.63140        2.13730       -0.48060
C          8.25340        2.42080        0.12710
C          7.72430        3.78690       -0.32100
F          7.33960        3.82300       -1.60520
F          6.66120        4.18250        0.39410
F          8.64350        4.75950       -0.17870
C          5.45700        1.73960        1.55960
S          3.71550        1.67270        1.74100
C          3.80790        2.40200        3.31400
C          5.10720        2.66960        3.66400
C          6.02850        2.29440        2.67540
N          2.68870        2.64560        4.05510
C          1.41040        2.35040        3.66800
C          0.32450        2.56360        4.43330
C         -1.00750        2.25150        4.02450
S         -2.32840        2.44970        5.15500
C         -3.48670        1.90540        3.96720
C         -2.86930        1.59600        2.78550
C         -1.47900        1.78580        2.82400
N         -4.81940        1.86820        4.29700
C         -5.76780        1.02150        3.77520
C         -5.53030       -0.08000        3.04100
C         -6.54000       -0.89400        2.45040
S         -8.24340       -0.50890        2.55400
C         -8.65350       -1.90370        1.58670
C         -7.53940       -2.60890        1.22830
C         -6.35300       -2.03370        1.71150
N         -9.97220       -2.15500        1.28450
C        -10.45260       -2.82180        0.18890
C         -9.90220       -2.96600       -1.03390
C         -8.76440       -2.30820       -1.60710
S         -8.26320       -0.71480       -1.11660
C         -7.06270       -0.64670       -2.33690
C         -7.03860       -1.77910       -3.08990
C         -8.01180       -2.72690       -2.68570
C         -8.13270       -4.07640       -3.33780
C         -7.47500       -5.11800       -2.43380
F         -8.04330       -5.21060       -1.22440
F         -7.53140       -6.35360       -2.96370
F         -6.17490       -4.86010       -2.22180
C         -7.46720       -4.16580       -4.73010
C         -7.08110       -2.80700       -5.30190
C         -6.19260       -2.06420       -4.29620
C         -5.63480       -0.79530       -4.91890
F         -6.58370        0.09990       -5.22630
F         -4.75410       -0.16620       -4.12580
F         -4.97720       -1.05320       -6.06370
H          6.91630       -3.14690        2.40690
H          3.09100       -3.18170        0.40040
H          4.31850       -3.36850        2.69020
H          3.90580       -3.45420       -2.15250
H          5.25070       -2.69870       -3.83690
H          6.71110       -0.87910       -3.66310
H          8.49480        0.37120       -3.23260
H          9.07860        2.57320       -2.52180
H         10.54300        1.60950       -2.35640
H         10.26730        3.01680       -0.36550
H         10.08760        1.32190        0.08140
H          8.35400        2.49350        1.21280
H          5.38770        3.11780        4.60010
H          7.08740        2.41010        2.81290
H          2.82390        3.06660        4.96410
H          1.33270        1.91900        2.68200
H          0.43940        2.98540        5.42280
H         -3.40070        1.28540        1.90530
H         -0.84410        1.60170        1.97700
H         -5.10060        2.44990        5.07140
H         -6.78480        1.31170        4.00420
H         -4.51730       -0.40910        2.86480
H         -7.57910       -3.51240        0.64890
H         -5.37890       -2.44880        1.52470
H        -10.64860       -1.86750        1.97590
H        -11.40900       -3.29690        0.36930
H        -10.41380       -3.64690       -1.70100
H         -6.44970        0.22740       -2.41340
H         -9.18910       -4.35910       -3.39820
H         -8.14190       -4.67140       -5.42070
H         -6.56180       -4.77270       -4.65600
H         -6.55100       -2.95320       -6.24400
H         -7.97250       -2.20650       -5.49590
H         -5.32870       -2.68560       -4.02780
