
  xtb     02282218133D
 energy: -239.951059096318 gnorm: 0.000433339303 xtb: 6.4.1 (unknown)
108115  0     0  0            999 V2000
    3.4568    0.1283    3.9797 C   0  0  0  0  0  0  0  0  0  0  0  0
    3.5864   -1.5481    3.6246 S   0  0  0  0  0  0  0  0  0  0  0  0
    3.2552   -1.2577    1.9758 C   0  0  0  0  0  0  0  0  0  0  0  0
    3.1004    0.0697    1.6939 C   0  0  0  0  0  0  0  0  0  0  0  0
    2.8508    0.5631    0.3223 C   0  0  0  0  0  0  0  0  0  0  0  0
    2.2242   -0.0622   -0.5026 O   0  0  0  0  0  0  0  0  0  0  0  0
    3.3840    1.7541    0.1009 O   0  0  0  0  0  0  0  0  0  0  0  0
    3.1998    0.8724    2.8702 C   0  0  0  0  0  0  0  0  0  0  0  0
    2.9830    2.6268    2.9740 S   0  0  0  0  0  0  0  0  0  0  0  0
    1.3624    2.8635    2.3943 C   0  0  0  0  0  0  0  0  0  0  0  0
    0.5511    1.9604    1.8342 C   0  0  0  0  0  0  0  0  0  0  0  0
   -0.7986    2.2247    1.4296 C   0  0  0  0  0  0  0  0  0  0  0  0
   -1.7370    3.4671    2.1836 S   0  0  0  0  0  0  0  0  0  0  0  0
   -3.1827    2.9779    1.3246 C   0  0  0  0  0  0  0  0  0  0  0  0
   -2.9115    1.9579    0.4542 C   0  0  0  0  0  0  0  0  0  0  0  0
   -1.5563    1.5263    0.5203 C   0  0  0  0  0  0  0  0  0  0  0  0
   -0.9785    0.5287   -0.4448 C   0  0  0  0  0  0  0  0  0  0  0  0
   -0.3736    1.3302   -1.5986 C   0  0  0  0  0  0  0  0  0  0  0  0
    0.1488    0.5495   -2.5573 F   0  0  0  0  0  0  0  0  0  0  0  0
    0.6099    2.1531   -1.2106 F   0  0  0  0  0  0  0  0  0  0  0  0
   -1.2818    2.1030   -2.2187 F   0  0  0  0  0  0  0  0  0  0  0  0
   -2.0094   -0.4729   -1.0053 C   0  0  0  0  0  0  0  0  0  0  0  0
   -3.3984   -0.2727   -0.4139 C   0  0  0  0  0  0  0  0  0  0  0  0
   -3.7998    1.2097   -0.5046 C   0  0  0  0  0  0  0  0  0  0  0  0
   -5.3014    1.3208   -0.2962 C   0  0  0  0  0  0  0  0  0  0  0  0
   -5.7832    2.5615   -0.4531 F   0  0  0  0  0  0  0  0  0  0  0  0
   -5.9530    0.5717   -1.2056 F   0  0  0  0  0  0  0  0  0  0  0  0
   -5.7038    0.8846    0.8997 F   0  0  0  0  0  0  0  0  0  0  0  0
   -4.3898    3.7365    1.5915 C   0  0  0  0  0  0  0  0  0  0  0  0
   -4.6473    5.2258    0.7043 S   0  0  0  0  0  0  0  0  0  0  0  0
   -6.1061    5.5220    1.5258 C   0  0  0  0  0  0  0  0  0  0  0  0
   -6.3872    4.5570    2.4505 C   0  0  0  0  0  0  0  0  0  0  0  0
   -7.5827    4.5186    3.2931 C   0  0  0  0  0  0  0  0  0  0  0  0
   -7.8509    3.6194    4.0510 O   0  0  0  0  0  0  0  0  0  0  0  0
   -8.3711    5.5935    3.1394 O   0  0  0  0  0  0  0  0  0  0  0  0
   -5.3853    3.5373    2.5107 C   0  0  0  0  0  0  0  0  0  0  0  0
   -5.6040    2.1862    3.6093 S   0  0  0  0  0  0  0  0  0  0  0  0
   -3.9853    1.5036    3.6664 C   0  0  0  0  0  0  0  0  0  0  0  0
   -3.7685    0.1975    3.4740 C   0  0  0  0  0  0  0  0  0  0  0  0
   -2.5052   -0.4546    3.6297 C   0  0  0  0  0  0  0  0  0  0  0  0
   -1.0978    0.3651    4.2520 S   0  0  0  0  0  0  0  0  0  0  0  0
   -0.1598   -1.0586    4.1371 C   0  0  0  0  0  0  0  0  0  0  0  0
   -0.8730   -2.1297    3.6725 C   0  0  0  0  0  0  0  0  0  0  0  0
   -0.3252   -3.4990    3.6182 C   0  0  0  0  0  0  0  0  0  0  0  0
   -0.9813   -4.5065    3.6266 O   0  0  0  0  0  0  0  0  0  0  0  0
    1.0161   -3.5008    3.5822 O   0  0  0  0  0  0  0  0  0  0  0  0
   -2.2153   -1.7759    3.3580 C   0  0  0  0  0  0  0  0  0  0  0  0
   -3.4711   -2.8555    2.7461 S   0  0  0  0  0  0  0  0  0  0  0  0
   -2.8246   -3.6100    1.3253 C   0  0  0  0  0  0  0  0  0  0  0  0
   -1.5958   -3.5646    0.8005 C   0  0  0  0  0  0  0  0  0  0  0  0
   -1.2440   -4.2939   -0.3868 C   0  0  0  0  0  0  0  0  0  0  0  0
   -2.4142   -4.6327   -1.6335 S   0  0  0  0  0  0  0  0  0  0  0  0
   -1.2505   -5.4631   -2.5612 C   0  0  0  0  0  0  0  0  0  0  0  0
   -0.0191   -5.5026   -1.9661 C   0  0  0  0  0  0  0  0  0  0  0  0
    1.0889   -6.2055   -2.6343 C   0  0  0  0  0  0  0  0  0  0  0  0
    0.9658   -6.7968   -3.6773 O   0  0  0  0  0  0  0  0  0  0  0  0
    2.2548   -6.1437   -1.9799 O   0  0  0  0  0  0  0  0  0  0  0  0
   -0.0161   -4.8155   -0.7160 C   0  0  0  0  0  0  0  0  0  0  0  0
    1.3138   -4.7931    0.4468 S   0  0  0  0  0  0  0  0  0  0  0  0
    2.5404   -3.8590   -0.3606 C   0  0  0  0  0  0  0  0  0  0  0  0
    2.3444   -3.0441   -1.4022 C   0  0  0  0  0  0  0  0  0  0  0  0
    3.3758   -2.2386   -1.9807 C   0  0  0  0  0  0  0  0  0  0  0  0
    4.8754   -1.9933   -1.1333 S   0  0  0  0  0  0  0  0  0  0  0  0
    5.3981   -0.8482   -2.2927 C   0  0  0  0  0  0  0  0  0  0  0  0
    4.4870   -0.6694   -3.2892 C   0  0  0  0  0  0  0  0  0  0  0  0
    3.3394   -1.4950   -3.1388 C   0  0  0  0  0  0  0  0  0  0  0  0
    2.2404   -1.5328   -4.1696 C   0  0  0  0  0  0  0  0  0  0  0  0
    1.8198   -2.9665   -4.5343 C   0  0  0  0  0  0  0  0  0  0  0  0
    0.6739   -3.3270   -3.9271 F   0  0  0  0  0  0  0  0  0  0  0  0
    1.5802   -3.1156   -5.8455 F   0  0  0  0  0  0  0  0  0  0  0  0
    2.7290   -3.8993   -4.2217 F   0  0  0  0  0  0  0  0  0  0  0  0
    2.6737   -0.7968   -5.4447 C   0  0  0  0  0  0  0  0  0  0  0  0
    3.2753    0.5530   -5.0900 C   0  0  0  0  0  0  0  0  0  0  0  0
    4.6247    0.3414   -4.3969 C   0  0  0  0  0  0  0  0  0  0  0  0
    5.1053    1.6770   -3.8419 C   0  0  0  0  0  0  0  0  0  0  0  0
    5.0484    2.6527   -4.7605 F   0  0  0  0  0  0  0  0  0  0  0  0
    4.3575    2.0956   -2.8043 F   0  0  0  0  0  0  0  0  0  0  0  0
    6.3730    1.6540   -3.4088 F   0  0  0  0  0  0  0  0  0  0  0  0
    3.5814    0.4852    4.9824 H   0  0  0  0  0  0  0  0  0  0  0  0
    3.2108   -2.0682    1.2771 H   0  0  0  0  0  0  0  0  0  0  0  0
    3.2045    2.0691   -0.7998 H   0  0  0  0  0  0  0  0  0  0  0  0
    1.0538    3.8889    2.5300 H   0  0  0  0  0  0  0  0  0  0  0  0
    0.8797    0.9431    1.6819 H   0  0  0  0  0  0  0  0  0  0  0  0
   -0.1329    0.0001    0.0055 H   0  0  0  0  0  0  0  0  0  0  0  0
   -1.6780   -1.4905   -0.8025 H   0  0  0  0  0  0  0  0  0  0  0  0
   -2.0727   -0.3602   -2.0896 H   0  0  0  0  0  0  0  0  0  0  0  0
   -3.4148   -0.5758    0.6351 H   0  0  0  0  0  0  0  0  0  0  0  0
   -4.1068   -0.8957   -0.9603 H   0  0  0  0  0  0  0  0  0  0  0  0
   -3.6207    1.5800   -1.5229 H   0  0  0  0  0  0  0  0  0  0  0  0
   -6.6971    6.3857    1.2953 H   0  0  0  0  0  0  0  0  0  0  0  0
   -9.1504    5.5082    3.7110 H   0  0  0  0  0  0  0  0  0  0  0  0
   -3.2022    2.1781    3.9764 H   0  0  0  0  0  0  0  0  0  0  0  0
   -4.5914   -0.4371    3.1755 H   0  0  0  0  0  0  0  0  0  0  0  0
    0.8628   -1.0575    4.4568 H   0  0  0  0  0  0  0  0  0  0  0  0
    1.3405   -4.4145    3.5405 H   0  0  0  0  0  0  0  0  0  0  0  0
   -3.5954   -4.2081    0.8606 H   0  0  0  0  0  0  0  0  0  0  0  0
   -0.7911   -3.0155    1.2691 H   0  0  0  0  0  0  0  0  0  0  0  0
   -1.5074   -5.8951   -3.5076 H   0  0  0  0  0  0  0  0  0  0  0  0
    2.9378   -6.6076   -2.4883 H   0  0  0  0  0  0  0  0  0  0  0  0
    3.5142   -4.0046    0.0828 H   0  0  0  0  0  0  0  0  0  0  0  0
    1.3539   -2.9330   -1.8152 H   0  0  0  0  0  0  0  0  0  0  0  0
    6.3487   -0.3724   -2.1619 H   0  0  0  0  0  0  0  0  0  0  0  0
    1.3487   -1.0463   -3.7583 H   0  0  0  0  0  0  0  0  0  0  0  0
    1.8102   -0.6603   -6.0957 H   0  0  0  0  0  0  0  0  0  0  0  0
    3.4122   -1.3962   -5.9822 H   0  0  0  0  0  0  0  0  0  0  0  0
    3.4120    1.1546   -5.9889 H   0  0  0  0  0  0  0  0  0  0  0  0
    2.5997    1.0857   -4.4171 H   0  0  0  0  0  0  0  0  0  0  0  0
    5.3783    0.0150   -5.1241 H   0  0  0  0  0  0  0  0  0  0  0  0
  1  2  1  0  0  0  0
  2  3  1  0  0  0  0
  3  4  2  0  0  0  0
  4  5  1  0  0  0  0
  5  6  2  0  0  0  0
  5  7  1  0  0  0  0
  4  8  1  0  0  0  0
  8  9  1  0  0  0  0
  9 10  1  0  0  0  0
 10 11  2  0  0  0  0
 11 12  1  0  0  0  0
 12 13  1  0  0  0  0
 13 14  1  0  0  0  0
 14 15  2  0  0  0  0
 15 16  1  0  0  0  0
 16 17  1  0  0  0  0
 17 18  1  0  0  0  0
 18 19  1  0  0  0  0
 18 20  1  0  0  0  0
 18 21  1  0  0  0  0
 17 22  1  0  0  0  0
 22 23  1  0  0  0  0
 23 24  1  0  0  0  0
 24 25  1  0  0  0  0
 25 26  1  0  0  0  0
 25 27  1  0  0  0  0
 25 28  1  0  0  0  0
 14 29  1  0  0  0  0
 29 30  1  0  0  0  0
 30 31  1  0  0  0  0
 31 32  2  0  0  0  0
 32 33  1  0  0  0  0
 33 34  2  0  0  0  0
 33 35  1  0  0  0  0
 32 36  1  0  0  0  0
 36 37  1  0  0  0  0
 37 38  1  0  0  0  0
 38 39  2  0  0  0  0
 39 40  1  0  0  0  0
 40 41  1  0  0  0  0
 41 42  1  0  0  0  0
 42 43  2  0  0  0  0
 43 44  1  0  0  0  0
 44 45  2  0  0  0  0
 44 46  1  0  0  0  0
 43 47  1  0  0  0  0
 47 48  1  0  0  0  0
 48 49  1  0  0  0  0
 49 50  2  0  0  0  0
 50 51  1  0  0  0  0
 51 52  1  0  0  0  0
 52 53  1  0  0  0  0
 53 54  2  0  0  0  0
 54 55  1  0  0  0  0
 55 56  2  0  0  0  0
 55 57  1  0  0  0  0
 54 58  1  0  0  0  0
 58 59  1  0  0  0  0
 59 60  1  0  0  0  0
 60 61  2  0  0  0  0
 61 62  1  0  0  0  0
 62 63  1  0  0  0  0
 63 64  1  0  0  0  0
 64 65  2  0  0  0  0
 65 66  1  0  0  0  0
 66 67  1  0  0  0  0
 67 68  1  0  0  0  0
 68 69  1  0  0  0  0
 68 70  1  0  0  0  0
 68 71  1  0  0  0  0
 67 72  1  0  0  0  0
 72 73  1  0  0  0  0
 73 74  1  0  0  0  0
 74 75  1  0  0  0  0
 75 76  1  0  0  0  0
 75 77  1  0  0  0  0
 75 78  1  0  0  0  0
  8  1  2  0  0  0  0
 16 12  2  0  0  0  0
 36 29  2  0  0  0  0
 47 40  2  0  0  0  0
 58 51  2  0  0  0  0
 66 62  2  0  0  0  0
 24 15  1  0  0  0  0
 74 65  1  0  0  0  0
  1 79  1  0  0  0  0
  3 80  1  0  0  0  0
  7 81  1  0  0  0  0
 10 82  1  0  0  0  0
 11 83  1  0  0  0  0
 17 84  1  0  0  0  0
 22 85  1  0  0  0  0
 22 86  1  0  0  0  0
 23 87  1  0  0  0  0
 23 88  1  0  0  0  0
 24 89  1  0  0  0  0
 31 90  1  0  0  0  0
 35 91  1  0  0  0  0
 38 92  1  0  0  0  0
 39 93  1  0  0  0  0
 42 94  1  0  0  0  0
 46 95  1  0  0  0  0
 49 96  1  0  0  0  0
 50 97  1  0  0  0  0
 53 98  1  0  0  0  0
 57 99  1  0  0  0  0
 60100  1  0  0  0  0
 61101  1  0  0  0  0
 64102  1  0  0  0  0
 67103  1  0  0  0  0
 72104  1  0  0  0  0
 72105  1  0  0  0  0
 73106  1  0  0  0  0
 73107  1  0  0  0  0
 74108  1  0  0  0  0
M  END
