125

C          8.17960      -10.57440       14.09450
S          7.25990       -9.10330       14.14060
C          6.55680       -9.49240       12.61300
C          5.65750       -9.00420       11.65900
C          5.62060       -9.95250       10.61940
N          6.44960      -11.00310       10.91910
C          6.76670      -12.10640       10.05230
C          7.89500      -11.75500        9.08340
C          7.03890      -10.71880       12.12410
C          7.97150      -11.33140       12.98430
C          4.76660       -9.59920        9.56760
C          4.15350       -8.38640        9.79630
S          4.62150       -7.66560       11.33130
C          3.25550       -7.69700        8.93350
S          2.65890       -6.10350        9.38070
C          1.79540       -5.99410        7.89140
C          0.99870       -5.12370        7.14540
C          0.70650       -5.78090        5.93310
N          1.27420       -7.02840        5.93340
C          1.28710       -7.95060        4.82910
C          2.43590       -7.65880        3.86500
C          1.96390       -7.15640        7.11110
C          2.78910       -8.11640        7.70590
C         -0.04160       -5.00720        5.04100
C         -0.32640       -3.76430        5.55970
S          0.31310       -3.53990        7.18690
C         -0.97660       -2.69170        4.89390
S         -1.38330       -2.87410        3.18810
C         -1.93620       -1.24240        3.13980
C         -2.41900       -0.28310        2.25060
C         -2.59410        0.90240        2.99200
N         -2.22540        0.69180        4.29560
C         -2.39770        1.62920        5.37420
C         -3.85180        1.67720        5.84030
C         -1.82870       -0.61550        4.39790
C         -1.28340       -1.44450        5.38730
C         -3.01510        1.98980        2.21580
C         -3.18400        1.63410        0.90020
S         -2.80130       -0.05590        0.58790
C         -3.43980        2.48100       -0.22730
S         -2.43320        2.20810       -1.62170
C         -3.07950        3.59570       -2.44730
C         -4.02720        4.21890       -1.66280
C         -4.26970        3.56050       -0.42690
C         -5.44980        3.98760        0.41370
C         -6.14450        2.81730        1.12020
F         -5.65100        2.56680        2.34340
F         -6.09950        1.67160        0.43430
F         -7.45180        3.06290        1.33320
C         -6.47020        4.66320       -0.51710
C         -5.86490        5.90300       -1.15290
C         -4.61880        5.56260       -1.98880
C         -3.55590        6.62520       -1.69990
F         -3.19410        6.63190       -0.40400
F         -4.00240        7.86330       -1.96940
F         -2.42630        6.47300       -2.39850
C         -2.58140        3.85690       -3.75960
S         -3.43830        4.83620       -4.94960
C         -2.23140        4.49200       -6.13160
C         -1.89220        4.74300       -7.46120
C         -0.68190        4.06060       -7.70410
N         -0.27100        3.42470       -6.56370
C          0.86440        2.54950       -6.43320
C          0.49650        1.10110       -6.74980
C         -1.21950        3.66360       -5.60530
C         -1.42810        3.30550       -4.27180
C         -0.21100        4.20280       -9.01420
C         -1.04890        4.98600       -9.77350
S         -2.44520        5.57140       -8.87110
C         -0.89850        5.33230      -11.14290
S          0.48630        4.71910      -12.04560
C         -0.07310        5.52220      -13.46560
C          0.24780        5.72410      -14.81130
C         -0.76190        6.54260      -15.34760
N         -1.67130        6.85900      -14.37260
C         -2.89920        7.58730      -14.55220
C         -4.04920        6.66100      -14.94460
C         -1.26930        6.22520      -13.22600
C         -1.73180        6.11340      -11.90860
C         -0.57410        6.83080      -16.71410
C          0.55470        6.23800      -17.18610
S          1.42810        5.31600      -16.00310
H          8.83440      -10.78810       14.91560
H          5.86460      -12.37560        9.49530
H          7.05700      -12.95750       10.67400
H          8.79450      -11.49020        9.63430
H          7.60820      -10.90780        8.46470
H          8.11440      -12.60230        8.43940
H          8.46390      -12.26920       12.80080
H          4.60540      -10.18460        8.68140
H          1.38000       -8.96320        5.23110
H          0.33010       -7.87080        4.30590
H          3.38980       -7.73750        4.38160
H          2.34220       -6.65240        3.46410
H          2.42250       -8.36700        3.04110
H          3.04610       -9.06350        7.26920
H         -0.35570       -5.30880        4.05810
H         -1.74450        1.32540        6.19560
H         -2.08400        2.61810        5.02620
H         -4.16140        0.70130        6.20670
H         -3.96460        2.40370        6.64020
H         -4.50050        1.95840        5.01380
H         -1.09890       -1.16780        6.40960
H         -3.15910        2.99070        2.57870
H         -5.14350        4.69100        1.19830
H         -7.35710        4.95420        0.04590
H         -6.76970        3.95100       -1.28930
H         -6.60580        6.39090       -1.78540
H         -5.59630        6.60420       -0.35970
H         -4.84180        5.62560       -3.05670
H          1.64320        2.89830       -7.11640
H          1.23880        2.62650       -5.40880
H         -0.27930        0.75310       -6.07190
H          1.36870        0.46260       -6.64120
H          0.12790        1.02080       -7.76970
H         -0.77860        2.67980       -3.68670
H          0.68660        3.76360       -9.41010
H         -2.74020        8.34000      -15.32920
H         -3.13340        8.09920      -13.61470
H         -4.96270        7.23400      -15.07710
H         -4.21170        5.91550      -14.16980
H         -3.81820        6.14780      -15.87530
H         -2.62390        6.56600      -11.51460
H         -1.22790        7.43440      -17.31720
H          0.94530        6.28060      -18.18320
