98

C          5.99290       -2.49400        8.01410
S          4.89050       -2.63760        6.69920
C          4.84900       -0.90560        6.43930
C          5.65350       -0.26570        7.36460
C          5.94150        1.09840        7.66280
C          6.80610        1.30670        8.67610
C          7.32080        2.60590        9.20090
C          6.85160        3.81130        8.39580
Se         7.40760       -0.32000        9.48950
C          6.30460       -1.19250        8.24050
C          4.06760       -0.40210        5.36420
S          2.78460       -1.41640        4.72990
C          2.37370       -0.27280        3.47820
C          3.19250        0.84560        3.56050
C          3.30610        2.01640        2.75560
C          4.29920        2.86050        3.10170
C          4.68290        4.13170        2.42560
C          6.02950        3.99220        1.71570
Se         5.27890        2.25320        4.61560
C          4.13270        0.76290        4.62780
C          1.35880       -0.59490        2.55640
S          0.84300        0.49950        1.28950
C         -0.30620       -0.64870        0.64200
C         -0.29480       -1.81980        1.38920
C         -1.02560       -3.04130        1.31460
C         -0.71900       -3.95160        2.26460
C         -1.32840       -5.30090        2.44470
C         -2.02210       -5.41990        3.80080
Se         0.63550       -3.34320        3.46740
C          0.63730       -1.76940        2.45850
C         -1.05840       -0.29690       -0.49510
S         -2.06820       -1.43880       -1.35210
C         -2.55530       -0.25340       -2.54570
C         -1.95360        0.96880       -2.28550
C         -1.94360        2.23090       -2.95100
C         -1.17830        3.18290       -2.37760
C         -1.00430        4.59090       -2.83610
C         -1.60170        5.57400       -1.83010
Se        -0.28180        2.56540       -0.80850
C         -1.11860        0.92530       -1.13590
C         -3.43250       -0.66310       -3.58030
S         -3.43700       -2.35480       -4.04650
C         -4.68310       -2.11500       -5.24280
C         -5.08600       -0.78840       -5.26070
C         -6.09480       -0.09040       -5.98870
C         -6.23780        1.21320       -5.67330
C         -7.22190        2.17630       -6.24520
C         -6.53780        3.42040       -6.80710
Se        -5.00310        1.78330       -4.33800
C         -4.36610        0.01790       -4.33290
C         -5.10550       -3.21940       -6.01860
S         -6.36700       -3.11680       -7.22890
C         -6.20560       -4.77790       -7.65190
C         -5.23900       -5.39950       -6.91480
C         -4.71410       -6.73110       -6.87950
C         -3.72700       -6.93280       -5.98510
C         -2.98760       -8.20260       -5.72770
C         -1.49110       -8.03900       -5.98770
Se        -3.28660       -5.35600       -4.98580
C         -4.61940       -4.50810       -5.98620
H          6.33160       -3.37300        8.52440
H          5.47440        1.90740        7.12750
H          7.00790        2.71550       10.24520
H          8.41570        2.56890        9.20110
H          5.77080        3.91450        8.45180
H          7.30390        4.71800        8.79010
H          7.13670        3.70760        7.35030
H          2.64850        2.20850        1.92480
H          3.90670        4.39540        1.70390
H          4.75110        4.93480        3.16610
H          5.97740        3.21630        0.95540
H          6.80340        3.72090        2.43390
H          6.30900        4.92960        1.24120
H         -1.76880       -3.22060        0.55640
H         -0.54730       -6.06440        2.37610
H         -2.04540       -5.47460        1.63940
H         -1.30290       -5.24760        4.60230
H         -2.45060       -6.41130        3.92490
H         -2.81600       -4.68140        3.88600
H         -2.49130        2.40620       -3.86330
H         -1.49060        4.70900       -3.80680
H          0.06160        4.80710       -2.95710
H         -1.12220        5.44890       -0.85890
H         -1.45300        6.59810       -2.16290
H         -2.66790        5.39360       -1.71390
H         -6.70790       -0.57770       -6.72740
H         -7.78880        1.67190       -7.03080
H         -7.92580        2.47960       -5.46340
H         -5.97980        3.92730       -6.01830
H         -7.27380        4.11150       -7.21000
H         -5.84350        3.14660       -7.59860
H         -6.83330       -5.18520       -8.41860
H         -5.08980       -7.50540       -7.52750
H         -3.13710       -8.50240       -4.68570
H         -3.39620       -8.98710       -6.36850
H         -1.31430       -7.75800       -7.02350
H         -1.08500       -7.25790       -5.34420
H         -0.96450       -8.96760       -5.78190
