
  xtb     02282220013D
 energy: -272.856958691159 gnorm: 0.000251505844 xtb: 6.4.1 (unknown)
131145  0     0  0            999 V2000
    6.5307   13.1389   10.0338 C   0  0  0  0  0  0  0  0  0  0  0  0
    4.8244   12.8853   10.2255 S   0  0  0  0  0  0  0  0  0  0  0  0
    4.9065   11.5224    9.1690 C   0  0  0  0  0  0  0  0  0  0  0  0
    4.1111   10.5295    8.5890 C   0  0  0  0  0  0  0  0  0  0  0  0
    4.9660    9.7405    7.7958 C   0  0  0  0  0  0  0  0  0  0  0  0
    6.2501   10.2095    7.8903 N   0  0  0  0  0  0  0  0  0  0  0  0
    7.3839    9.7304    7.1450 C   0  0  0  0  0  0  0  0  0  0  0  0
    7.4840   10.4062    5.7783 C   0  0  0  0  0  0  0  0  0  0  0  0
    6.2184   11.3065    8.7109 C   0  0  0  0  0  0  0  0  0  0  0  0
    7.1429   12.2426    9.2152 C   0  0  0  0  0  0  0  0  0  0  0  0
    4.3115    8.6923    7.1373 C   0  0  0  0  0  0  0  0  0  0  0  0
    2.9661    8.6751    7.4219 C   0  0  0  0  0  0  0  0  0  0  0  0
    2.4821    9.9659    8.5201 S   0  0  0  0  0  0  0  0  0  0  0  0
    1.9940    7.7606    6.9345 C   0  0  0  0  0  0  0  0  0  0  0  0
    2.4917    6.4774    5.8344 S   0  0  0  0  0  0  0  0  0  0  0  0
    0.8686    5.8982    5.7650 C   0  0  0  0  0  0  0  0  0  0  0  0
    0.0903    4.8952    5.1872 C   0  0  0  0  0  0  0  0  0  0  0  0
   -1.2289    5.0951    5.6444 C   0  0  0  0  0  0  0  0  0  0  0  0
   -1.2750    6.1959    6.4596 N   0  0  0  0  0  0  0  0  0  0  0  0
   -2.4129    6.6272    7.2285 C   0  0  0  0  0  0  0  0  0  0  0  0
   -2.5399    5.8335    8.5275 C   0  0  0  0  0  0  0  0  0  0  0  0
    0.0029    6.6784    6.5580 C   0  0  0  0  0  0  0  0  0  0  0  0
    0.6482    7.7318    7.2180 C   0  0  0  0  0  0  0  0  0  0  0  0
   -2.1383    4.1508    5.1556 C   0  0  0  0  0  0  0  0  0  0  0  0
   -1.5194    3.2225    4.3529 C   0  0  0  0  0  0  0  0  0  0  0  0
    0.2017    3.5293    4.1461 S   0  0  0  0  0  0  0  0  0  0  0  0
   -2.1095    2.1362    3.6333 C   0  0  0  0  0  0  0  0  0  0  0  0
   -1.5185    1.8207    2.0293 S   0  0  0  0  0  0  0  0  0  0  0  0
   -2.6914    0.5616    1.7771 C   0  0  0  0  0  0  0  0  0  0  0  0
   -3.5086    0.4327    2.8802 C   0  0  0  0  0  0  0  0  0  0  0  0
   -3.1366    1.2756    3.9600 C   0  0  0  0  0  0  0  0  0  0  0  0
   -3.7171    1.0538    5.3373 C   0  0  0  0  0  0  0  0  0  0  0  0
   -2.6419    1.0788    6.4373 C   0  0  0  0  0  0  0  0  0  0  0  0
   -2.9195    0.2176    7.4339 F   0  0  0  0  0  0  0  0  0  0  0  0
   -1.4209    0.7505    6.0069 F   0  0  0  0  0  0  0  0  0  0  0  0
   -2.5373    2.2712    7.0468 F   0  0  0  0  0  0  0  0  0  0  0  0
   -4.4024   -0.3208    5.3732 C   0  0  0  0  0  0  0  0  0  0  0  0
   -5.4404   -0.4145    4.2699 C   0  0  0  0  0  0  0  0  0  0  0  0
   -4.7715   -0.3865    2.8879 C   0  0  0  0  0  0  0  0  0  0  0  0
   -5.7758    0.2418    1.9178 C   0  0  0  0  0  0  0  0  0  0  0  0
   -6.0372    1.5226    2.2316 F   0  0  0  0  0  0  0  0  0  0  0  0
   -6.9554   -0.4008    1.9496 F   0  0  0  0  0  0  0  0  0  0  0  0
   -5.3914    0.2468    0.6374 F   0  0  0  0  0  0  0  0  0  0  0  0
   -2.6027   -0.1901    0.5642 C   0  0  0  0  0  0  0  0  0  0  0  0
   -3.0947   -1.8798    0.4764 S   0  0  0  0  0  0  0  0  0  0  0  0
   -2.4988   -1.9837   -1.1365 C   0  0  0  0  0  0  0  0  0  0  0  0
   -2.3342   -2.8845   -2.1882 C   0  0  0  0  0  0  0  0  0  0  0  0
   -1.7058   -2.1753   -3.2333 C   0  0  0  0  0  0  0  0  0  0  0  0
   -1.5051   -0.8752   -2.8546 N   0  0  0  0  0  0  0  0  0  0  0  0
   -0.8035    0.1325   -3.6071 C   0  0  0  0  0  0  0  0  0  0  0  0
    0.6977    0.0957   -3.3285 C   0  0  0  0  0  0  0  0  0  0  0  0
   -1.9617   -0.7547   -1.5703 C   0  0  0  0  0  0  0  0  0  0  0  0
   -2.0157    0.2504   -0.5982 C   0  0  0  0  0  0  0  0  0  0  0  0
   -1.4386   -2.9624   -4.3570 C   0  0  0  0  0  0  0  0  0  0  0  0
   -1.8370   -4.2683   -4.1786 C   0  0  0  0  0  0  0  0  0  0  0  0
   -2.5940   -4.5327   -2.6106 S   0  0  0  0  0  0  0  0  0  0  0  0
   -1.7018   -5.3015   -5.1564 C   0  0  0  0  0  0  0  0  0  0  0  0
   -1.4958   -4.8230   -6.8176 S   0  0  0  0  0  0  0  0  0  0  0  0
   -1.3864   -6.4711   -7.3397 C   0  0  0  0  0  0  0  0  0  0  0  0
   -1.5442   -7.3359   -6.2847 C   0  0  0  0  0  0  0  0  0  0  0  0
   -1.7008   -6.6759   -5.0417 C   0  0  0  0  0  0  0  0  0  0  0  0
   -1.6471   -7.4430   -3.7503 C   0  0  0  0  0  0  0  0  0  0  0  0
   -0.2015   -7.3770   -3.2402 C   0  0  0  0  0  0  0  0  0  0  0  0
    0.7056   -7.7120   -4.1765 F   0  0  0  0  0  0  0  0  0  0  0  0
    0.1376   -6.1493   -2.8285 F   0  0  0  0  0  0  0  0  0  0  0  0
    0.0144   -8.1978   -2.2017 F   0  0  0  0  0  0  0  0  0  0  0  0
   -2.1056   -8.8939   -3.9275 C   0  0  0  0  0  0  0  0  0  0  0  0
   -1.4319   -9.5700   -5.1192 C   0  0  0  0  0  0  0  0  0  0  0  0
   -1.7093   -8.8255   -6.4296 C   0  0  0  0  0  0  0  0  0  0  0  0
   -3.1370   -9.0957   -6.9226 C   0  0  0  0  0  0  0  0  0  0  0  0
   -4.0828   -8.4682   -6.2140 F   0  0  0  0  0  0  0  0  0  0  0  0
   -3.4433  -10.4026   -6.8938 F   0  0  0  0  0  0  0  0  0  0  0  0
   -3.2988   -8.7067   -8.1964 F   0  0  0  0  0  0  0  0  0  0  0  0
   -1.0904   -6.7880   -8.7179 C   0  0  0  0  0  0  0  0  0  0  0  0
   -2.1344   -6.2940  -10.0122 S   0  0  0  0  0  0  0  0  0  0  0  0
   -1.1260   -7.0483  -11.1739 C   0  0  0  0  0  0  0  0  0  0  0  0
   -0.0369   -7.6333  -10.6085 C   0  0  0  0  0  0  0  0  0  0  0  0
   -0.0066   -7.4786   -9.1973 C   0  0  0  0  0  0  0  0  0  0  0  0
    1.1892   -7.9030   -8.3912 C   0  0  0  0  0  0  0  0  0  0  0  0
    2.1369   -6.7027   -8.3091 C   0  0  0  0  0  0  0  0  0  0  0  0
    3.2322   -6.9770   -7.5852 F   0  0  0  0  0  0  0  0  0  0  0  0
    1.5627   -5.6366   -7.7384 F   0  0  0  0  0  0  0  0  0  0  0  0
    2.5729   -6.3020   -9.5134 F   0  0  0  0  0  0  0  0  0  0  0  0
    1.9495   -9.1039   -9.0011 C   0  0  0  0  0  0  0  0  0  0  0  0
    1.3320   -9.6246  -10.2975 C   0  0  0  0  0  0  0  0  0  0  0  0
    1.0319   -8.4635  -11.2564 C   0  0  0  0  0  0  0  0  0  0  0  0
    0.5984   -8.9981  -12.6121 C   0  0  0  0  0  0  0  0  0  0  0  0
    1.5208   -9.8212  -13.1371 F   0  0  0  0  0  0  0  0  0  0  0  0
   -0.5432   -9.6981  -12.5553 F   0  0  0  0  0  0  0  0  0  0  0  0
    0.4093   -8.0271  -13.5176 F   0  0  0  0  0  0  0  0  0  0  0  0
    6.9815   13.9600   10.5545 H   0  0  0  0  0  0  0  0  0  0  0  0
    7.2798    8.6489    7.0213 H   0  0  0  0  0  0  0  0  0  0  0  0
    8.2863    9.9283    7.7298 H   0  0  0  0  0  0  0  0  0  0  0  0
    6.5897   10.2047    5.1935 H   0  0  0  0  0  0  0  0  0  0  0  0
    7.5842   11.4826    5.8972 H   0  0  0  0  0  0  0  0  0  0  0  0
    8.3484   10.0308    5.2377 H   0  0  0  0  0  0  0  0  0  0  0  0
    8.1939   12.2606    8.9904 H   0  0  0  0  0  0  0  0  0  0  0  0
    4.7734    7.9749    6.4833 H   0  0  0  0  0  0  0  0  0  0  0  0
   -2.2940    7.6920    7.4442 H   0  0  0  0  0  0  0  0  0  0  0  0
   -3.3098    6.4936    6.6171 H   0  0  0  0  0  0  0  0  0  0  0  0
   -2.6287    4.7716    8.3099 H   0  0  0  0  0  0  0  0  0  0  0  0
   -1.6603    5.9867    9.1481 H   0  0  0  0  0  0  0  0  0  0  0  0
   -3.4184    6.1566    9.0791 H   0  0  0  0  0  0  0  0  0  0  0  0
    0.1808    8.4434    7.8742 H   0  0  0  0  0  0  0  0  0  0  0  0
   -3.1934    4.1456    5.3585 H   0  0  0  0  0  0  0  0  0  0  0  0
   -4.4449    1.8338    5.5922 H   0  0  0  0  0  0  0  0  0  0  0  0
   -3.6488   -1.1006    5.2431 H   0  0  0  0  0  0  0  0  0  0  0  0
   -4.8855   -0.4679    6.3392 H   0  0  0  0  0  0  0  0  0  0  0  0
   -6.1281    0.4294    4.3624 H   0  0  0  0  0  0  0  0  0  0  0  0
   -6.0210   -1.3306    4.3750 H   0  0  0  0  0  0  0  0  0  0  0  0
   -4.5741   -1.4019    2.5329 H   0  0  0  0  0  0  0  0  0  0  0  0
   -1.2138    1.1084   -3.3346 H   0  0  0  0  0  0  0  0  0  0  0  0
   -0.9944   -0.0418   -4.6692 H   0  0  0  0  0  0  0  0  0  0  0  0
    0.8898    0.2743   -2.2733 H   0  0  0  0  0  0  0  0  0  0  0  0
    1.1066   -0.8759   -3.5955 H   0  0  0  0  0  0  0  0  0  0  0  0
    1.2033    0.8607   -3.9109 H   0  0  0  0  0  0  0  0  0  0  0  0
   -1.6531    1.2551   -0.7171 H   0  0  0  0  0  0  0  0  0  0  0  0
   -0.9548   -2.6236   -5.2552 H   0  0  0  0  0  0  0  0  0  0  0  0
   -2.2578   -6.9647   -2.9806 H   0  0  0  0  0  0  0  0  0  0  0  0
   -1.8836   -9.4567   -3.0196 H   0  0  0  0  0  0  0  0  0  0  0  0
   -3.1873   -8.8904   -4.0604 H   0  0  0  0  0  0  0  0  0  0  0  0
   -1.7901  -10.5974   -5.2023 H   0  0  0  0  0  0  0  0  0  0  0  0
   -0.3534   -9.6105   -4.9671 H   0  0  0  0  0  0  0  0  0  0  0  0
   -1.0668   -9.2175   -7.2246 H   0  0  0  0  0  0  0  0  0  0  0  0
   -1.4048   -7.0128  -12.2073 H   0  0  0  0  0  0  0  0  0  0  0  0
    0.9065   -8.0997   -7.3530 H   0  0  0  0  0  0  0  0  0  0  0  0
    2.9799   -8.8047   -9.2030 H   0  0  0  0  0  0  0  0  0  0  0  0
    1.9857   -9.9160   -8.2754 H   0  0  0  0  0  0  0  0  0  0  0  0
    2.0234  -10.3294  -10.7606 H   0  0  0  0  0  0  0  0  0  0  0  0
    0.3968  -10.1499  -10.0893 H   0  0  0  0  0  0  0  0  0  0  0  0
    1.9374   -7.8691  -11.4285 H   0  0  0  0  0  0  0  0  0  0  0  0
  1  2  1  0  0  0  0
  2  3  1  0  0  0  0
  3  4  1  0  0  0  0
  4  5  2  0  0  0  0
  5  6  1  0  0  0  0
  6  7  1  0  0  0  0
  7  8  1  0  0  0  0
  6  9  1  0  0  0  0
  9 10  1  0  0  0  0
  5 11  1  0  0  0  0
 11 12  2  0  0  0  0
 12 13  1  0  0  0  0
 12 14  1  0  0  0  0
 14 15  1  0  0  0  0
 15 16  1  0  0  0  0
 16 17  1  0  0  0  0
 17 18  2  0  0  0  0
 18 19  1  0  0  0  0
 19 20  1  0  0  0  0
 20 21  1  0  0  0  0
 19 22  1  0  0  0  0
 22 23  1  0  0  0  0
 18 24  1  0  0  0  0
 24 25  2  0  0  0  0
 25 26  1  0  0  0  0
 25 27  1  0  0  0  0
 27 28  1  0  0  0  0
 28 29  1  0  0  0  0
 29 30  2  0  0  0  0
 30 31  1  0  0  0  0
 31 32  1  0  0  0  0
 32 33  1  0  0  0  0
 33 34  1  0  0  0  0
 33 35  1  0  0  0  0
 33 36  1  0  0  0  0
 32 37  1  0  0  0  0
 37 38  1  0  0  0  0
 38 39  1  0  0  0  0
 39 40  1  0  0  0  0
 40 41  1  0  0  0  0
 40 42  1  0  0  0  0
 40 43  1  0  0  0  0
 29 44  1  0  0  0  0
 44 45  1  0  0  0  0
 45 46  1  0  0  0  0
 46 47  1  0  0  0  0
 47 48  2  0  0  0  0
 48 49  1  0  0  0  0
 49 50  1  0  0  0  0
 50 51  1  0  0  0  0
 49 52  1  0  0  0  0
 52 53  1  0  0  0  0
 48 54  1  0  0  0  0
 54 55  2  0  0  0  0
 55 56  1  0  0  0  0
 55 57  1  0  0  0  0
 57 58  1  0  0  0  0
 58 59  1  0  0  0  0
 59 60  2  0  0  0  0
 60 61  1  0  0  0  0
 61 62  1  0  0  0  0
 62 63  1  0  0  0  0
 63 64  1  0  0  0  0
 63 65  1  0  0  0  0
 63 66  1  0  0  0  0
 62 67  1  0  0  0  0
 67 68  1  0  0  0  0
 68 69  1  0  0  0  0
 69 70  1  0  0  0  0
 70 71  1  0  0  0  0
 70 72  1  0  0  0  0
 70 73  1  0  0  0  0
 59 74  1  0  0  0  0
 74 75  1  0  0  0  0
 75 76  1  0  0  0  0
 76 77  2  0  0  0  0
 77 78  1  0  0  0  0
 78 79  1  0  0  0  0
 79 80  1  0  0  0  0
 80 81  1  0  0  0  0
 80 82  1  0  0  0  0
 80 83  1  0  0  0  0
 79 84  1  0  0  0  0
 84 85  1  0  0  0  0
 85 86  1  0  0  0  0
 86 87  1  0  0  0  0
 87 88  1  0  0  0  0
 87 89  1  0  0  0  0
 87 90  1  0  0  0  0
 10  1  2  0  0  0  0
 23 14  2  0  0  0  0
 31 27  2  0  0  0  0
 53 44  2  0  0  0  0
 61 57  2  0  0  0  0
 78 74  2  0  0  0  0
  9  3  2  0  0  0  0
 22 16  2  0  0  0  0
 39 30  1  0  0  0  0
 52 46  2  0  0  0  0
 69 60  1  0  0  0  0
 86 77  1  0  0  0  0
 13  4  1  0  0  0  0
 26 17  1  0  0  0  0
 56 47  1  0  0  0  0
  1 91  1  0  0  0  0
  7 92  1  0  0  0  0
  7 93  1  0  0  0  0
  8 94  1  0  0  0  0
  8 95  1  0  0  0  0
  8 96  1  0  0  0  0
 10 97  1  0  0  0  0
 11 98  1  0  0  0  0
 20 99  1  0  0  0  0
 20100  1  0  0  0  0
 21101  1  0  0  0  0
 21102  1  0  0  0  0
 21103  1  0  0  0  0
 23104  1  0  0  0  0
 24105  1  0  0  0  0
 32106  1  0  0  0  0
 37107  1  0  0  0  0
 37108  1  0  0  0  0
 38109  1  0  0  0  0
 38110  1  0  0  0  0
 39111  1  0  0  0  0
 50112  1  0  0  0  0
 50113  1  0  0  0  0
 51114  1  0  0  0  0
 51115  1  0  0  0  0
 51116  1  0  0  0  0
 53117  1  0  0  0  0
 54118  1  0  0  0  0
 62119  1  0  0  0  0
 67120  1  0  0  0  0
 67121  1  0  0  0  0
 68122  1  0  0  0  0
 68123  1  0  0  0  0
 69124  1  0  0  0  0
 76125  1  0  0  0  0
 79126  1  0  0  0  0
 84127  1  0  0  0  0
 84128  1  0  0  0  0
 85129  1  0  0  0  0
 85130  1  0  0  0  0
 86131  1  0  0  0  0
M  END
