128

C          7.24500       -8.67060        7.43610
S          5.63180       -8.39410        7.93560
C          5.26530       -7.54170        6.45930
C          6.37080       -7.49940        5.63880
C          7.50070       -8.14270        6.20700
C          8.85540       -8.16860        5.55460
C          9.77430       -7.21280        6.31950
F         10.98500       -7.10560        5.74940
F          9.29170       -5.96680        6.41790
F          9.99200       -7.63190        7.57650
C          8.79660       -7.80820        4.06540
C          7.83360       -6.65600        3.78900
C          6.40180       -6.97630        4.23120
C          5.74980       -8.01850        3.31550
F          4.42970       -8.12040        3.52560
F          5.90320       -7.72230        2.01610
F          6.23970       -9.25880        3.47850
C          3.94700       -7.00630        6.30060
S          3.62510       -5.59990        5.29270
C          1.96040       -5.65460        5.72390
C          0.74710       -5.01300        5.47590
C         -0.23180       -5.70150        6.21980
N          0.34800       -6.74090        6.89920
C         -0.30790       -7.63580        7.81640
C         -0.29250       -7.08870        9.24270
C          1.68720       -6.71270        6.61310
C          2.82080       -7.46470        6.94380
C         -1.52700       -5.19300        6.05360
C         -1.55020       -4.12560        5.18290
S          0.05620       -3.72440        4.57170
C         -2.62350       -3.32200        4.67940
S         -2.26020       -2.28320        3.33820
C         -3.87710       -1.63120        3.29620
C         -4.65420       -2.21720        4.26170
C         -3.94460       -3.17010        5.04680
C         -4.61520       -3.95500        6.13840
C         -5.10290       -5.29170        5.57150
F         -5.47490       -6.13070        6.55840
F         -6.16710       -5.16740        4.76690
F         -4.17430       -5.94350        4.86250
C         -5.80840       -3.23770        6.81120
C         -6.15210       -1.90180        6.16120
C         -6.10220       -2.02530        4.62940
C         -6.84240       -0.85000        4.01870
F         -6.84000       -0.83070        2.68350
F         -6.39490        0.34340        4.44010
F         -8.14150       -0.88850        4.37840
C         -4.08030       -0.63870        2.26620
S         -3.67090       -1.12150        0.62030
C         -3.87750        0.49990        0.08280
C         -3.74300        1.30340       -1.05160
C         -4.04850        2.61960       -0.65230
N         -4.38910        2.63320        0.67560
C         -4.66890        3.79760        1.47280
C         -3.38870        4.41660        2.03230
C         -4.25710        1.34940        1.13840
C         -4.34980        0.69930        2.37830
C         -3.88180        3.56510       -1.67150
C         -3.44160        2.98020       -2.83980
S         -3.26150        1.23580       -2.70460
C         -3.06430        3.62920       -4.04890
S         -2.35990        2.68260       -5.35370
C         -2.10340        4.11760       -6.27260
C         -1.55300        4.56370       -7.47530
C         -1.69480        5.96560       -7.49110
N         -2.30220        6.38230       -6.33360
C         -2.70490        7.72660       -6.01990
C         -4.10290        8.03530       -6.55420
C         -2.56580        5.26030       -5.58910
C         -3.11100        4.97820       -4.33210
C         -1.15220        6.57010       -8.63030
C         -0.59470        5.64050       -9.48270
S         -0.74790        3.99220       -8.88840
C          0.08030        5.88470      -10.71210
S          0.70080        4.53000      -11.64730
C          1.33410        5.61680      -12.82580
C          2.04680        5.64100      -14.02940
C          2.18940        6.99240      -14.38770
N          1.60480        7.78960      -13.43750
C          1.45590        9.21870      -13.49890
C          0.17870        9.62060      -14.23550
C          1.06440        6.95720      -12.49090
C          0.35230        7.10390      -11.29380
C          2.89640        7.17570      -15.59260
C          3.27330        5.98130      -16.12190
S          2.79100        4.60020      -15.18800
H          7.91760       -9.20100        8.07950
H          9.30980       -9.15820        5.67740
H          9.79500       -7.53600        3.71880
H          8.48820       -8.69390        3.51070
H          7.84010       -6.42830        2.72210
H          8.15590       -5.76210        4.32380
H          5.78820       -6.07640        4.13400
H          0.20600       -8.59980        7.77920
H         -1.33740       -7.77830        7.47750
H          0.73130       -6.95150        9.58250
H         -0.79440       -7.78070        9.91300
H         -0.80190       -6.12870        9.28450
H          2.83650       -8.31460        7.60190
H         -2.38950       -5.62720        6.51980
H         -3.86620       -4.21010        6.89330
H         -5.58270       -3.07220        7.86430
H         -6.68490       -3.88690        6.76550
H         -7.14620       -1.59310        6.48700
H         -5.43810       -1.13480        6.46910
H         -6.67230       -2.90740        4.31120
H         -5.33120        3.49990        2.29010
H         -5.19450        4.52360        0.84620
H         -2.72780        4.71140        1.22050
H         -3.62590        5.29320        2.62890
H         -2.86610        3.69680        2.65780
H         -4.56340        1.18680        3.31040
H         -4.04620        4.62140       -1.56610
H         -2.68370        7.84560       -4.93310
H         -1.97550        8.41370       -6.45790
H         -4.12600        7.91590       -7.63480
H         -4.38260        9.05590       -6.30720
H         -4.83020        7.35550       -6.11670
H         -3.51270        5.70870       -3.65470
H         -1.15650        7.62550       -8.83050
H          2.32970        9.63280      -14.00960
H          1.43690        9.60550      -12.47600
H         -0.69140        9.20890      -13.72950
H          0.19740        9.23980      -15.25390
H          0.08810       10.70300      -14.26690
H          0.05220        8.04220      -10.86560
H          3.11510        8.12520      -16.04670
H          3.81930        5.81360      -17.02870
