125

C          0.79320        2.36390       10.56180
C          0.82260        3.52620        9.80740
C          1.43220        4.82950       10.17620
O          1.96680        5.10350       11.21570
C          1.24690        5.74410        8.98040
C          0.35620        4.98840        8.01580
O         -0.19510        5.44700        7.04840
C          0.23930        3.60610        8.53580
C         -0.37400        2.49990        7.93790
C         -0.39360        1.32810        8.70180
C          0.15700        1.27380        9.98750
C         -0.06500       -0.06800       10.58640
O          0.34540       -0.45620       11.64620
C         -0.90620       -0.84700        9.59530
C         -1.01910        0.02440        8.35870
O         -1.51170       -0.29320        7.30980
C         -0.90970        2.52010        6.58060
S         -0.08870        1.55100        5.41310
C         -1.20130        2.02000        4.18270
C         -2.14710        2.89180        4.65240
C         -1.98530        3.17270        6.03890
C         -2.92250        4.08160        6.79110
C         -3.30320        3.53650        8.16940
F         -4.50490        3.97540        8.57380
F         -3.35840        2.20000        8.23150
F         -2.45090        3.92090        9.14120
C         -4.19680        4.32810        5.97760
C         -3.82490        4.72960        4.56040
C         -3.24100        3.51820        3.82760
C         -2.76910        3.94500        2.43530
F         -1.49500        4.35400        2.39570
F         -3.49890        4.95950        1.94520
F         -2.88260        2.96220        1.52180
C         -1.00690        1.42440        2.86560
C          0.12150        1.71040        2.09230
C          1.19180        2.70490        2.36680
O          1.40380        3.28320        3.39760
C          1.98860        2.82540        1.08240
C          1.60200        1.62150        0.25260
O          2.19980        1.16520       -0.68580
C          0.35190        1.09590        0.85870
C         -0.51510        0.14070        0.33380
C         -1.64210       -0.14510        1.10100
C         -1.88960        0.48340        2.32580
C         -3.18100        0.00680        2.87610
O         -3.81710        0.50160        3.76960
C         -3.58670       -1.18590        2.03590
C         -2.72920       -1.10660        0.79070
O         -2.90600       -1.69320       -0.24410
C         -0.26280       -0.51730       -0.95260
C         -0.10590       -1.90020       -1.05230
C         -0.12410       -2.90360        0.03960
O         -0.35510       -2.70500        1.20500
C          0.19970       -4.23930       -0.59500
C          0.19100       -4.00290       -2.09040
O          0.21970       -4.84350       -2.94990
C          0.10950       -2.53290       -2.28000
C          0.21240       -1.81790       -3.47190
C          0.07200       -0.43540       -3.36890
C         -0.17230        0.19840       -2.14670
C         -0.30880        1.66170       -2.35510
O         -0.39450        2.51270       -1.50810
C         -0.29080        1.88470       -3.85260
C          0.15040        0.56990       -4.45890
O          0.51520        0.38510       -5.58970
C          0.45490       -2.48280       -4.75710
C         -0.43540       -2.37440       -5.82620
C         -1.72270       -1.63720       -5.88060
O         -2.17510       -0.89750       -5.04560
C         -2.35720       -1.97740       -7.21290
C         -1.28630       -2.69090       -8.00870
O         -1.30830       -2.93540       -9.18670
C         -0.19610       -3.00330       -7.05220
C          0.92850       -3.79660       -7.27130
C          1.81070       -3.91320       -6.19860
C          1.58970       -3.26410       -4.98010
C          2.71320       -3.54140       -4.05000
O          2.79170       -3.23370       -2.88890
C          3.74700       -4.31360       -4.84260
C          3.06950       -4.69630       -6.14020
O          3.46480       -5.49370       -6.95010
C          1.17010       -4.46860       -8.55380
C          0.26820       -5.39220       -9.08490
C         -1.02350       -5.84690       -8.51380
O         -1.52650       -5.48840       -7.47960
C         -1.60770       -6.84430       -9.49250
C         -0.60690       -6.96340      -10.62600
O         -0.69490       -7.67220      -11.59110
C          0.50640       -6.03280      -10.30730
C          1.64380       -5.78280      -11.05990
C          2.54000       -4.86350      -10.53620
C          2.31580       -4.22120       -9.31200
C          3.44170       -3.30570       -9.00250
O          3.56530       -2.61110       -8.02620
C          4.42700       -3.42150      -10.14690
C          3.82560       -4.41050      -11.12700
O          4.29450       -4.75840      -12.17610
H          1.23060        2.31380       11.54660
H          2.21370        5.94920        8.51370
H          0.82150        6.70870        9.26130
H         -0.47460       -1.82290        9.36730
H         -1.90010       -1.03240       10.01010
H         -2.40870        5.03740        6.96400
H         -4.79920        3.41710        5.95670
H         -4.78380        5.11750        6.44730
H         -4.70790        5.08890        4.03170
H         -3.08620        5.53400        4.58420
H         -4.02960        2.76880        3.67300
H          3.06250        2.91650        1.24480
H          1.65450        3.72390        0.55500
H         -3.32990       -2.10180        2.57590
H         -4.65510       -1.21830        1.82200
H          1.19950       -4.55730       -0.28670
H         -0.49480       -5.02410       -0.29200
H          0.34160        2.72260       -4.14810
H         -1.30610        2.10630       -4.19380
H         -3.19340       -2.66300       -7.04830
H         -2.75360       -1.10100       -7.72700
H          4.13780       -5.17460       -4.29900
H          4.59390       -3.65780       -5.06390
H         -1.78790       -7.81000       -9.01550
H         -2.57340       -6.49500       -9.86500
H          1.82190       -6.27710      -12.00240
H          4.60570       -2.45190      -10.61660
H          5.39470       -3.77620       -9.78490
