156

C          4.98480       12.50950       10.20510
S          4.71910       11.85100        8.63580
C          4.11390       10.39690        9.33880
C          3.62220        9.21940        8.71320
C          3.18540        8.18590        9.52500
Ge         3.39310        8.73920       11.40620
C          1.63200        8.99430       12.33030
C          0.65700        9.79030       11.47710
C          4.72500        7.63270       12.42360
C          5.16890        8.29500       13.71830
C          4.12620       10.43500       10.72130
C          4.62760       11.65590       11.20390
C          2.73120        7.09560        8.78590
C          2.80520        7.27650        7.41870
S          3.47060        8.84850        7.04030
C          2.47110        6.29990        6.43560
S          2.22660        4.66160        6.97960
C          1.98080        4.07670        5.35450
C          2.10540        5.11650        4.45180
C          2.34390        6.36940        5.06170
C          2.27510        7.65170        4.27920
C          0.87940        8.25160        4.48750
F          0.65800        8.61370        5.75970
F         -0.11900        7.41170        4.17180
F          0.68780        9.35600        3.74790
C          2.56270        7.45160        2.78800
C          1.82420        6.24650        2.21210
C          2.15420        4.95020        2.95890
C          3.55330        4.44750        2.58330
F          3.82300        3.23780        3.09410
F          3.70740        4.33550        1.25410
F          4.54500        5.24620        3.00930
C          1.65150        2.70060        5.19490
S          1.12790        1.98710        3.68690
C          0.92080        0.45780        4.44790
C          0.50240       -0.77470        3.89280
C          0.41930       -1.87270        4.73970
Ge         0.92910       -1.29990        6.55780
C         -0.61870       -1.29830        7.83390
C         -1.84370       -0.62440        7.23580
C          2.59540       -2.17160        7.26040
C          3.13230       -1.47930        8.50330
C          1.23320        0.49290        5.79990
C          1.63900        1.75920        6.20850
C          0.01550       -3.02460        4.06890
C         -0.20780       -2.82490        2.71860
S          0.08250       -1.16410        2.26760
C         -0.60070       -3.78290        1.74560
S         -0.75910       -3.33520        0.06530
C         -1.18820       -4.95210       -0.34740
C         -1.48590       -5.51220       -1.61330
C         -1.77940       -6.86890       -1.67220
Ge        -1.70300       -7.60260        0.15460
C         -0.24480       -8.95890        0.40010
C         -0.04240       -9.33980        1.85810
C         -3.49090       -8.20410        0.83870
C         -3.99910       -9.44330        0.11870
C         -1.21260       -5.79210        0.75910
C         -0.88090       -5.12360        1.93520
C         -2.03020       -7.29740       -2.97350
C         -1.93590       -6.28760       -3.91300
S         -1.52710       -4.76370       -3.16490
C         -2.11820       -6.38310       -5.31920
S         -2.02720       -4.96410       -6.33070
C         -2.32580       -5.91910       -7.73400
C         -2.42270       -5.52820       -9.09210
C         -2.65870       -6.51400      -10.03840
Ge        -2.80330       -8.24750       -9.11620
C         -1.29760       -9.49310       -9.57700
C         -1.37740      -10.01940      -11.00130
C         -4.64230       -9.04110       -9.29000
C         -5.21030       -8.88320      -10.69280
C         -2.48690       -7.26520       -7.43350
C         -2.36980       -7.51760       -6.06840
C         -2.73180       -5.99300      -11.32850
C         -2.57050       -4.62420      -11.38710
S         -2.29840       -3.96080       -9.79350
C         -2.55370       -3.83990      -12.58150
S         -2.25420       -4.66470      -14.08990
C         -2.33050       -3.19710      -14.96780
C         -2.57070       -2.12690      -14.16070
C         -2.70750       -2.48680      -12.79510
C         -3.11070       -1.47310      -11.76340
C         -4.62000       -1.59590      -11.52790
F         -5.09950       -0.60270      -10.76240
F         -5.34490       -1.58020      -12.65890
F         -4.94580       -2.73850      -10.90680
C         -2.72430       -0.05590      -12.19990
C         -3.19330        0.26120      -13.61810
C         -2.60550       -0.70600      -14.65260
C         -1.18270       -0.29820      -15.04190
F         -0.28940       -0.45650      -14.05620
F         -1.10750        0.98960      -15.41660
F         -0.72560       -1.01280      -16.08270
H          5.39250       13.49800       10.28900
H          1.80870        9.50560       13.27640
H          1.21850        8.01310       12.56270
H         -0.28780        9.92800       11.99980
H          0.45960        9.27480       10.53930
H          1.06650       10.77130       11.24310
H          4.27770        6.66090       12.63100
H          5.58430        7.46470       11.77470
H          5.89760        7.67360       14.23610
H          4.32100        8.45150       14.38200
H          5.62580        9.26090       13.51430
H          4.71930       11.89670       12.24900
H          2.34820        6.18900        9.22250
H          2.97480        8.39090        4.67950
H          2.27000        8.34970        2.24130
H          3.63830        7.32820        2.66560
H          2.08560        6.13140        1.15880
H          0.74730        6.40290        2.26950
H          1.46370        4.16750        2.63150
H         -0.31330       -0.78180        8.74360
H         -0.84780       -2.32860        8.10560
H         -1.62170        0.40900        6.97610
H         -2.67090       -0.63100        7.94350
H         -2.16050       -1.13980        6.33100
H          3.34190       -2.15050        6.46700
H          2.37610       -3.21720        7.47550
H          3.35420       -0.43570        8.29180
H          2.40400       -1.51730        9.31100
H          4.04640       -1.96180        8.84500
H          1.92530        2.00500        7.21700
H         -0.10690       -3.98130        4.54490
H          0.67380       -8.54010       -0.01000
H         -0.49110       -9.84140       -0.19000
H          0.20730       -8.46160        2.44960
H         -0.94690       -9.78260        2.27040
H          0.76670      -10.06150        1.95770
H         -4.19330       -7.38080        0.71030
H         -3.40750       -8.39580        1.90830
H         -4.97400       -9.73860        0.50300
H         -3.31250      -10.27690        0.25340
H         -4.09540       -9.24990       -0.94760
H         -0.84280       -5.59510        2.90120
H         -2.27320       -8.31270       -3.23260
H         -1.30840      -10.32140       -8.86860
H         -0.36410       -8.95020       -9.42970
H         -1.37430       -9.19680      -11.71320
H         -0.52690      -10.66360      -11.21840
H         -2.28720      -10.59770      -11.14810
H         -4.59240      -10.09510       -9.01790
H         -5.29290       -8.54730       -8.56900
H         -6.20400       -9.32420      -10.75290
H         -5.28580       -7.83010      -10.95480
H         -4.57450       -9.37170      -11.42790
H         -2.46020       -8.49660       -5.63250
H         -2.91050       -6.58510      -12.21000
H         -2.18620       -3.20480      -16.02930
H         -2.64420       -1.68970      -10.79770
H         -3.15690        0.66730      -11.50670
H         -1.63900        0.02820      -12.13730
H         -2.90650        1.28290      -13.87320
H         -4.28000        0.20380      -13.67370
H         -3.18200       -0.64730      -15.58270
