
  xtb     02282216353D
 energy: -233.095341704047 gnorm: 0.000153388352 xtb: 6.4.1 (unknown)
112127  0     0  0            999 V2000
    5.6427   -2.4536    1.3802 C   0  0  0  0  0  0  0  0  0  0  0  0
    4.5903   -1.8243    1.9446 C   0  0  0  0  0  0  0  0  0  0  0  0
    4.6322   -0.4857    2.3892 C   0  0  0  0  0  0  0  0  0  0  0  0
    5.8576    0.3123    2.2231 C   0  0  0  0  0  0  0  0  0  0  0  0
    7.0069   -0.1505    1.6821 C   0  0  0  0  0  0  0  0  0  0  0  0
    7.2002   -1.7500    1.1030 S   0  0  0  0  0  0  0  0  0  0  0  0
    5.5402    1.5944    2.7397 C   0  0  0  0  0  0  0  0  0  0  0  0
    4.2215    1.6057    3.1997 C   0  0  0  0  0  0  0  0  0  0  0  0
    3.8927    2.8295    3.8234 C   0  0  0  0  0  0  0  0  0  0  0  0
    4.9292    3.7065    3.7855 C   0  0  0  0  0  0  0  0  0  0  0  0
    6.3482    3.0879    3.0133 S   0  0  0  0  0  0  0  0  0  0  0  0
    3.6420    0.3114    2.9531 C   0  0  0  0  0  0  0  0  0  0  0  0
    2.2904   -0.0982    3.2266 C   0  0  0  0  0  0  0  0  0  0  0  0
    1.9973   -1.6580    3.9388 S   0  0  0  0  0  0  0  0  0  0  0  0
    0.2643   -1.4728    3.8172 C   0  0  0  0  0  0  0  0  0  0  0  0
   -0.0509   -0.2442    3.3054 C   0  0  0  0  0  0  0  0  0  0  0  0
    1.0983    0.5307    2.9712 C   0  0  0  0  0  0  0  0  0  0  0  0
    0.9132    1.7992    2.1881 C   0  0  0  0  0  0  0  0  0  0  0  0
    0.5128    3.0163    3.0361 C   0  0  0  0  0  0  0  0  0  0  0  0
    1.2948    4.0757    2.7745 F   0  0  0  0  0  0  0  0  0  0  0  0
    0.6050    2.7949    4.3589 F   0  0  0  0  0  0  0  0  0  0  0  0
   -0.7414    3.4433    2.8268 F   0  0  0  0  0  0  0  0  0  0  0  0
   -0.1319    1.5137    1.0978 C   0  0  0  0  0  0  0  0  0  0  0  0
   -1.4641    0.9696    1.6410 C   0  0  0  0  0  0  0  0  0  0  0  0
   -1.3573    0.4708    3.0979 C   0  0  0  0  0  0  0  0  0  0  0  0
   -2.6522   -0.2289    3.4828 C   0  0  0  0  0  0  0  0  0  0  0  0
   -3.0919   -1.1301    2.5914 F   0  0  0  0  0  0  0  0  0  0  0  0
   -2.5928   -0.8513    4.6682 F   0  0  0  0  0  0  0  0  0  0  0  0
   -3.6423    0.6746    3.5898 F   0  0  0  0  0  0  0  0  0  0  0  0
   -0.5307   -2.6469    4.1251 C   0  0  0  0  0  0  0  0  0  0  0  0
   -1.3337   -3.2221    3.1906 C   0  0  0  0  0  0  0  0  0  0  0  0
   -2.0576   -4.4115    3.3750 C   0  0  0  0  0  0  0  0  0  0  0  0
   -1.9870   -5.1238    4.6587 C   0  0  0  0  0  0  0  0  0  0  0  0
   -1.2249   -4.7378    5.7062 C   0  0  0  0  0  0  0  0  0  0  0  0
   -0.2337   -3.3411    5.7070 S   0  0  0  0  0  0  0  0  0  0  0  0
   -2.8591   -6.2357    4.5200 C   0  0  0  0  0  0  0  0  0  0  0  0
   -3.4454   -6.2197    3.2540 C   0  0  0  0  0  0  0  0  0  0  0  0
   -4.3077   -7.3223    3.0587 C   0  0  0  0  0  0  0  0  0  0  0  0
   -4.3566   -8.1196    4.1578 C   0  0  0  0  0  0  0  0  0  0  0  0
   -3.3643   -7.5778    5.4677 S   0  0  0  0  0  0  0  0  0  0  0  0
   -2.9387   -5.0848    2.5240 C   0  0  0  0  0  0  0  0  0  0  0  0
   -3.3418   -4.6855    1.2065 C   0  0  0  0  0  0  0  0  0  0  0  0
   -2.5444   -3.9709    0.3534 C   0  0  0  0  0  0  0  0  0  0  0  0
   -2.9492   -3.4147   -0.8663 C   0  0  0  0  0  0  0  0  0  0  0  0
   -4.3082   -3.6429   -1.3740 C   0  0  0  0  0  0  0  0  0  0  0  0
   -5.2337   -4.4008   -0.7457 C   0  0  0  0  0  0  0  0  0  0  0  0
   -4.9855   -5.1421    0.7756 S   0  0  0  0  0  0  0  0  0  0  0  0
   -4.3879   -2.9145   -2.5890 C   0  0  0  0  0  0  0  0  0  0  0  0
   -3.1863   -2.2416   -2.8111 C   0  0  0  0  0  0  0  0  0  0  0  0
   -3.2114   -1.5163   -4.0235 C   0  0  0  0  0  0  0  0  0  0  0  0
   -4.4042   -1.6408   -4.6625 C   0  0  0  0  0  0  0  0  0  0  0  0
   -5.5435   -2.6440   -3.8339 S   0  0  0  0  0  0  0  0  0  0  0  0
   -2.2746   -2.5500   -1.7376 C   0  0  0  0  0  0  0  0  0  0  0  0
   -0.9698   -1.9659   -1.6025 C   0  0  0  0  0  0  0  0  0  0  0  0
   -0.6911   -0.7018   -2.0476 C   0  0  0  0  0  0  0  0  0  0  0  0
    0.5441   -0.0467   -1.9139 C   0  0  0  0  0  0  0  0  0  0  0  0
    1.6873   -0.6860   -1.2357 C   0  0  0  0  0  0  0  0  0  0  0  0
    1.6494   -1.9406   -0.7413 C   0  0  0  0  0  0  0  0  0  0  0  0
    0.2698   -2.9584   -0.8298 S   0  0  0  0  0  0  0  0  0  0  0  0
    2.6978    0.3105   -1.1818 C   0  0  0  0  0  0  0  0  0  0  0  0
    2.2164    1.4932   -1.7458 C   0  0  0  0  0  0  0  0  0  0  0  0
    3.1651    2.5376   -1.7009 C   0  0  0  0  0  0  0  0  0  0  0  0
    4.3248    2.1292   -1.1239 C   0  0  0  0  0  0  0  0  0  0  0  0
    4.3157    0.4723   -0.6219 S   0  0  0  0  0  0  0  0  0  0  0  0
    0.8862    1.2638   -2.2278 C   0  0  0  0  0  0  0  0  0  0  0  0
    0.0650    2.2529   -2.8774 C   0  0  0  0  0  0  0  0  0  0  0  0
   -0.2374    3.7772   -2.0903 S   0  0  0  0  0  0  0  0  0  0  0  0
   -1.2554    4.2928   -3.3712 C   0  0  0  0  0  0  0  0  0  0  0  0
   -1.3512    3.3607   -4.3553 C   0  0  0  0  0  0  0  0  0  0  0  0
   -0.5823    2.1954   -4.0845 C   0  0  0  0  0  0  0  0  0  0  0  0
   -0.3962    1.0984   -5.0976 C   0  0  0  0  0  0  0  0  0  0  0  0
    0.9905    1.2469   -5.7254 C   0  0  0  0  0  0  0  0  0  0  0  0
    1.9930    1.1005   -4.8529 F   0  0  0  0  0  0  0  0  0  0  0  0
    1.1990    0.3297   -6.6875 F   0  0  0  0  0  0  0  0  0  0  0  0
    1.1602    2.4452   -6.3057 F   0  0  0  0  0  0  0  0  0  0  0  0
   -1.4361    1.1326   -6.2385 C   0  0  0  0  0  0  0  0  0  0  0  0
   -2.6568    1.9801   -5.9018 C   0  0  0  0  0  0  0  0  0  0  0  0
   -2.2100    3.4132   -5.5855 C   0  0  0  0  0  0  0  0  0  0  0  0
   -3.4242    4.3078   -5.3864 C   0  0  0  0  0  0  0  0  0  0  0  0
   -4.2692    4.2380   -6.4289 F   0  0  0  0  0  0  0  0  0  0  0  0
   -4.1384    3.9793   -4.3005 F   0  0  0  0  0  0  0  0  0  0  0  0
   -3.1043    5.6042   -5.2596 F   0  0  0  0  0  0  0  0  0  0  0  0
    5.5939   -3.4775    1.0504 H   0  0  0  0  0  0  0  0  0  0  0  0
    3.6707   -2.3795    2.0659 H   0  0  0  0  0  0  0  0  0  0  0  0
    7.8851    0.4668    1.5783 H   0  0  0  0  0  0  0  0  0  0  0  0
    2.9645    3.0469    4.3132 H   0  0  0  0  0  0  0  0  0  0  0  0
    4.9547    4.7047    4.1757 H   0  0  0  0  0  0  0  0  0  0  0  0
    1.8634    2.0674    1.7138 H   0  0  0  0  0  0  0  0  0  0  0  0
   -0.3091    2.4162    0.5126 H   0  0  0  0  0  0  0  0  0  0  0  0
    0.3157    0.7743    0.4363 H   0  0  0  0  0  0  0  0  0  0  0  0
   -2.2335    1.7411    1.6006 H   0  0  0  0  0  0  0  0  0  0  0  0
   -1.7895    0.1417    1.0076 H   0  0  0  0  0  0  0  0  0  0  0  0
   -1.3426    1.3385    3.7711 H   0  0  0  0  0  0  0  0  0  0  0  0
   -1.4094   -2.7089    2.2453 H   0  0  0  0  0  0  0  0  0  0  0  0
   -1.1935   -5.2928    6.6306 H   0  0  0  0  0  0  0  0  0  0  0  0
   -4.8610   -7.5259    2.1604 H   0  0  0  0  0  0  0  0  0  0  0  0
   -4.9266   -9.0184    4.2900 H   0  0  0  0  0  0  0  0  0  0  0  0
   -1.5168   -3.8393    0.6508 H   0  0  0  0  0  0  0  0  0  0  0  0
   -6.2161   -4.5719   -1.1575 H   0  0  0  0  0  0  0  0  0  0  0  0
   -2.3924   -0.9470   -4.4199 H   0  0  0  0  0  0  0  0  0  0  0  0
   -4.6975   -1.1988   -5.5949 H   0  0  0  0  0  0  0  0  0  0  0  0
   -1.5132   -0.1322   -2.4588 H   0  0  0  0  0  0  0  0  0  0  0  0
    2.4888   -2.3936   -0.2379 H   0  0  0  0  0  0  0  0  0  0  0  0
    3.0002    3.5320   -2.0729 H   0  0  0  0  0  0  0  0  0  0  0  0
    5.2158    2.7019   -0.9555 H   0  0  0  0  0  0  0  0  0  0  0  0
   -1.7194    5.2557   -3.3090 H   0  0  0  0  0  0  0  0  0  0  0  0
   -0.3839    0.1260   -4.5947 H   0  0  0  0  0  0  0  0  0  0  0  0
   -1.7485    0.1164   -6.4805 H   0  0  0  0  0  0  0  0  0  0  0  0
   -0.9707    1.5497   -7.1345 H   0  0  0  0  0  0  0  0  0  0  0  0
   -3.3401    1.9778   -6.7520 H   0  0  0  0  0  0  0  0  0  0  0  0
   -3.1825    1.5705   -5.0358 H   0  0  0  0  0  0  0  0  0  0  0  0
   -1.6506    3.8279   -6.4337 H   0  0  0  0  0  0  0  0  0  0  0  0
  1  2  2  0  0  0  0
  2  3  1  0  0  0  0
  3  4  1  0  0  0  0
  4  5  2  0  0  0  0
  5  6  1  0  0  0  0
  4  7  1  0  0  0  0
  7  8  2  0  0  0  0
  8  9  1  0  0  0  0
  9 10  2  0  0  0  0
 10 11  1  0  0  0  0
  8 12  1  0  0  0  0
 12 13  1  0  0  0  0
 13 14  1  0  0  0  0
 14 15  1  0  0  0  0
 15 16  2  0  0  0  0
 16 17  1  0  0  0  0
 17 18  1  0  0  0  0
 18 19  1  0  0  0  0
 19 20  1  0  0  0  0
 19 21  1  0  0  0  0
 19 22  1  0  0  0  0
 18 23  1  0  0  0  0
 23 24  1  0  0  0  0
 24 25  1  0  0  0  0
 25 26  1  0  0  0  0
 26 27  1  0  0  0  0
 26 28  1  0  0  0  0
 26 29  1  0  0  0  0
 15 30  1  0  0  0  0
 30 31  2  0  0  0  0
 31 32  1  0  0  0  0
 32 33  1  0  0  0  0
 33 34  2  0  0  0  0
 34 35  1  0  0  0  0
 33 36  1  0  0  0  0
 36 37  2  0  0  0  0
 37 38  1  0  0  0  0
 38 39  2  0  0  0  0
 39 40  1  0  0  0  0
 37 41  1  0  0  0  0
 41 42  1  0  0  0  0
 42 43  2  0  0  0  0
 43 44  1  0  0  0  0
 44 45  1  0  0  0  0
 45 46  2  0  0  0  0
 46 47  1  0  0  0  0
 45 48  1  0  0  0  0
 48 49  2  0  0  0  0
 49 50  1  0  0  0  0
 50 51  2  0  0  0  0
 51 52  1  0  0  0  0
 49 53  1  0  0  0  0
 53 54  1  0  0  0  0
 54 55  2  0  0  0  0
 55 56  1  0  0  0  0
 56 57  1  0  0  0  0
 57 58  2  0  0  0  0
 58 59  1  0  0  0  0
 57 60  1  0  0  0  0
 60 61  2  0  0  0  0
 61 62  1  0  0  0  0
 62 63  2  0  0  0  0
 63 64  1  0  0  0  0
 61 65  1  0  0  0  0
 65 66  1  0  0  0  0
 66 67  1  0  0  0  0
 67 68  1  0  0  0  0
 68 69  2  0  0  0  0
 69 70  1  0  0  0  0
 70 71  1  0  0  0  0
 71 72  1  0  0  0  0
 72 73  1  0  0  0  0
 72 74  1  0  0  0  0
 72 75  1  0  0  0  0
 71 76  1  0  0  0  0
 76 77  1  0  0  0  0
 77 78  1  0  0  0  0
 78 79  1  0  0  0  0
 79 80  1  0  0  0  0
 79 81  1  0  0  0  0
 79 82  1  0  0  0  0
  6  1  1  0  0  0  0
 11  7  1  0  0  0  0
 17 13  2  0  0  0  0
 35 30  1  0  0  0  0
 40 36  1  0  0  0  0
 47 42  1  0  0  0  0
 52 48  1  0  0  0  0
 59 54  1  0  0  0  0
 64 60  1  0  0  0  0
 70 66  2  0  0  0  0
 12  3  2  0  0  0  0
 25 16  1  0  0  0  0
 41 32  2  0  0  0  0
 53 44  2  0  0  0  0
 65 56  2  0  0  0  0
 78 69  1  0  0  0  0
  1 83  1  0  0  0  0
  2 84  1  0  0  0  0
  5 85  1  0  0  0  0
  9 86  1  0  0  0  0
 10 87  1  0  0  0  0
 18 88  1  0  0  0  0
 23 89  1  0  0  0  0
 23 90  1  0  0  0  0
 24 91  1  0  0  0  0
 24 92  1  0  0  0  0
 25 93  1  0  0  0  0
 31 94  1  0  0  0  0
 34 95  1  0  0  0  0
 38 96  1  0  0  0  0
 39 97  1  0  0  0  0
 43 98  1  0  0  0  0
 46 99  1  0  0  0  0
 50100  1  0  0  0  0
 51101  1  0  0  0  0
 55102  1  0  0  0  0
 58103  1  0  0  0  0
 62104  1  0  0  0  0
 63105  1  0  0  0  0
 68106  1  0  0  0  0
 71107  1  0  0  0  0
 76108  1  0  0  0  0
 76109  1  0  0  0  0
 77110  1  0  0  0  0
 77111  1  0  0  0  0
 78112  1  0  0  0  0
M  END
