197

C         -3.92680        2.95480       14.71180
S         -3.32650        3.11280       13.11610
C         -4.65650        2.20010       12.46580
C         -5.51800        1.81730       13.47090
C         -5.08690        2.24520       14.75330
C         -5.84170        1.76190       15.95660
C         -5.03190        1.89790       17.23550
F         -5.68250        1.38160       18.29020
F         -4.76690        3.17460       17.55040
F         -3.85030        1.26560       17.17600
C         -6.17110        0.28460       15.69330
C         -7.13830        0.14410       14.51950
C         -6.79470        1.04770       13.30950
C         -7.94500        2.03770       13.10550
F         -7.69740        2.95620       12.16130
F         -8.24400        2.72650       14.21750
F         -9.07450        1.41390       12.73370
C         -4.67140        1.89200       11.06540
C         -5.71580        1.55950       10.25640
C         -5.32980        1.24740        8.92980
C         -6.15720        0.79950        7.88700
C         -7.56140        0.51440        8.12480
S         -8.81790        1.17620        7.12460
C        -10.06640        0.42140        8.05630
C        -11.49910        0.56270        7.67940
C        -11.85430       -0.37480        6.52300
C         -9.52600       -0.31260        9.07020
Cl       -10.44430       -1.21100       10.20710
C         -8.10800       -0.25830        9.11280
Cl        -7.19390       -1.16850       10.24410
C         -5.55440        0.61200        6.65190
C         -4.17060        0.80340        6.43020
C         -3.33520        1.21050        7.48660
C         -1.90490        1.38140        7.29510
S         -0.93160        0.11270        6.60860
C          0.51990        1.04370        6.74310
C          1.83720        0.48320        6.33490
C          2.46160       -0.33500        7.46770
C          0.25180        2.26030        7.29600
C         -1.12050        2.45770        7.60790
Cl        -1.71390        3.94210        8.22370
Cl         1.44080        3.46270        7.58420
C         -3.94120        1.42380        8.71920
S         -3.14640        1.87870       10.19610
C         -3.81560        0.53890        5.08530
C         -4.85580        0.13150        4.30140
S         -6.35660        0.07380        5.20800
C         -4.75360       -0.17910        2.90620
S         -3.27910        0.25830        2.09700
C         -3.83650       -0.39790        0.58800
C         -5.10860       -0.89480        0.70370
C         -5.62190       -0.78640        2.02650
C         -6.92640       -1.41880        2.42210
C         -6.61630       -2.81680        2.96380
F         -5.74150       -2.80890        3.97620
F         -6.09320       -3.62090        2.02250
F         -7.71810       -3.43340        3.41700
C         -7.94030       -1.54630        1.26700
C         -7.44340       -0.89740       -0.01600
C         -6.03740       -1.41460       -0.36520
C         -5.69710       -0.97740       -1.78750
F         -4.69440       -1.67610       -2.33450
F         -5.38230        0.31930       -1.87970
F         -6.74050       -1.16470       -2.61660
C         -2.89440       -0.40630       -0.51080
C         -2.29720       -1.49510       -1.05660
C         -1.36970       -1.17200       -2.08250
C         -0.57510       -2.04720       -2.83770
C         -0.62580       -3.48670       -2.64140
S         -0.37890       -4.20070       -1.07520
C         -0.56330       -5.80760       -1.69020
C         -0.51290       -6.99100       -0.78840
C         -1.87690       -7.24160       -0.14030
C         -0.81460       -5.77420       -3.02910
Cl        -1.06830       -7.17290       -3.98780
C         -0.84380       -4.46200       -3.57530
Cl        -1.20300       -4.15900       -5.22270
C          0.26760       -1.47410       -3.78290
C          0.31050       -0.08160       -4.03310
C         -0.49610        0.79230       -3.28810
C         -0.47840        2.22840       -3.51530
S          1.00590        3.13390       -3.46500
C          0.19530        4.63220       -3.77070
C          0.95340        5.90590       -3.91040
C          1.48370        6.07330       -5.33660
C         -1.14350        4.42300       -3.91500
C         -1.53230        3.06380       -3.76390
Cl        -3.15320        2.54210       -3.96150
Cl        -2.27470        5.67000       -4.24130
C         -1.30470        0.22320       -2.31070
S         -2.32510        1.09430       -1.20620
C          1.22280        0.23660       -5.07380
C          1.87270       -0.84860       -5.56750
S          1.40850       -2.33300       -4.77150
C          2.88270       -0.85500       -6.60070
S          4.47740       -1.39670       -6.19110
C          5.06720       -1.00600       -7.77160
C          4.07770       -0.45900       -8.55500
C          2.81460       -0.42340       -7.90250
C          1.55670       -0.08620       -8.66570
C          0.40520       -1.04560       -8.33720
F         -0.48370       -1.11640       -9.34350
F         -0.31250       -0.67840       -7.26800
F          0.82000       -2.30010       -8.12370
C          1.84410       -0.19560      -10.17020
C          3.01990        0.69010      -10.54010
C          4.32020        0.18510       -9.89580
C          5.22660        1.40700       -9.72300
F          4.74080        2.26070       -8.80590
F          5.33080        2.10250      -10.86710
F          6.47850        1.12890       -9.34810
C          6.43320       -1.30960       -8.11100
C          6.89460       -1.88430       -9.25290
C          8.30660       -2.02250       -9.28430
C          9.10140       -2.56500      -10.30670
C          8.51630       -3.00240      -11.56300
S          8.83500       -4.58290      -12.21140
C          7.84320       -4.29990      -13.60020
C          7.62410       -5.36120      -14.62090
C          6.47300       -6.28420      -14.21300
C          7.29860       -3.05110      -13.54750
Cl         6.25620       -2.40850      -14.75050
C          7.68100       -2.31110      -12.39730
Cl         7.20230       -0.67740      -12.15130
C         10.46850       -2.64090      -10.06780
C         11.06880       -2.17550       -8.87400
C         10.27300       -1.63420       -7.85310
C         10.85310       -1.17980       -6.59970
S         10.56130        0.42210       -5.99350
C         11.53470        0.14970       -4.58900
C         11.68570        1.19890       -3.54360
C         10.47530        1.21410       -2.60700
C         12.03620       -1.11790       -4.59640
C         11.65720       -1.87300       -5.73830
Cl        12.10950       -3.51460       -5.95490
Cl        13.03790       -1.76080       -3.35990
C          8.90620       -1.55860       -8.09030
S          7.71710       -0.94950       -6.97830
C         12.48910       -2.29690       -8.91950
C         12.93090       -2.83950      -10.07150
S         11.66610       -3.23220      -11.18470
H         -3.38060        3.39500       15.52110
H         -6.76180        2.33790       16.10710
H         -6.61810       -0.16780       16.57920
H         -5.23780       -0.23980       15.47550
H         -8.14650        0.38300       14.86370
H         -7.14580       -0.89580       14.19480
H         -6.74640        0.44880       12.39510
H         -6.74540        1.59270       10.54840
H        -12.11340        0.32410        8.54910
H        -11.69730        1.59450        7.38350
H        -11.67400       -1.40870        6.80600
H        -12.90280       -0.26270        6.26110
H        -11.24820       -0.14260        5.65040
H          1.70390       -0.15300        5.45820
H          2.50120        1.30860        6.07180
H          1.81060       -1.16270        7.73900
H          2.61430        0.28950        8.34410
H          3.42160       -0.73450        7.15260
H         -2.81540        0.64220        4.70560
H         -7.37050       -0.86520        3.25210
H         -8.13770       -2.60230        1.07150
H         -8.88350       -1.08700        1.56000
H         -8.14430       -1.12830       -0.81790
H         -7.39820        0.18800        0.09880
H         -6.03570       -2.51190       -0.37340
H         -2.51780       -2.49960       -0.74640
H         -0.22070       -7.86410       -1.37440
H          0.23380       -6.82380       -0.01040
H         -2.62980       -7.41670       -0.90450
H         -1.82820       -8.11300        0.50680
H         -2.17690       -6.38170        0.45390
H          1.78980        5.90930       -3.20960
H          0.28810        6.73650       -3.66800
H          2.02990        7.00850       -5.42400
H          2.15250        5.25400       -5.58970
H          0.65960        6.08370       -6.04540
H          1.39000        1.23380       -5.43700
H          1.20520        0.92330       -8.42150
H          0.96590        0.11250      -10.73750
H          2.06510       -1.23650      -10.41750
H          3.14170        0.72240      -11.62260
H          2.81360        1.70680      -10.19680
H          4.84190       -0.50100      -10.56820
H          6.25240       -2.24000      -10.03690
H          7.39140       -4.88730      -15.57620
H          8.53730       -5.94770      -14.73340
H          6.69380       -6.76480      -13.26300
H          6.32570       -7.05210      -14.96730
H          5.55230       -5.71570      -14.11010
H         11.78560        2.17500       -4.02150
H         12.59180        0.99470       -2.97050
H         10.37220        0.25360       -2.10870
H         10.59720        1.98680       -1.85290
H          9.56640        1.41310       -3.16960
H         13.13660       -1.97610       -8.12480
H         13.94440       -3.04070      -10.35860
