
  xtb     02282220163D
 energy: -251.107051825912 gnorm: 0.000182432418 xtb: 6.4.1 (unknown)
128143  0     0  0            999 V2000
    9.6980   11.6405    8.8743 C   0  0  0  0  0  0  0  0  0  0  0  0
    7.9953   11.9629    8.9525 S   0  0  0  0  0  0  0  0  0  0  0  0
    7.6645   10.3135    8.5665 C   0  0  0  0  0  0  0  0  0  0  0  0
    6.6083    9.4227    8.3552 C   0  0  0  0  0  0  0  0  0  0  0  0
    7.1858    8.1735    8.0578 C   0  0  0  0  0  0  0  0  0  0  0  0
    8.5518    8.2812    8.0673 N   0  0  0  0  0  0  0  0  0  0  0  0
    9.4880    7.2017    7.8970 C   0  0  0  0  0  0  0  0  0  0  0  0
    9.7565    6.4776    9.2151 C   0  0  0  0  0  0  0  0  0  0  0  0
    8.8509    9.5780    8.3920 C   0  0  0  0  0  0  0  0  0  0  0  0
   10.0138   10.3530    8.5720 C   0  0  0  0  0  0  0  0  0  0  0  0
    6.2449    7.1701    7.8070 C   0  0  0  0  0  0  0  0  0  0  0  0
    4.9512    7.6325    7.9144 C   0  0  0  0  0  0  0  0  0  0  0  0
    4.8889    9.3447    8.3295 S   0  0  0  0  0  0  0  0  0  0  0  0
    3.7868    6.8643    7.6167 C   0  0  0  0  0  0  0  0  0  0  0  0
    4.0181    5.3559    6.7732 S   0  0  0  0  0  0  0  0  0  0  0  0
    2.3010    5.0820    6.6252 C   0  0  0  0  0  0  0  0  0  0  0  0
    1.6059    6.1253    7.2050 C   0  0  0  0  0  0  0  0  0  0  0  0
    2.4390    7.1051    7.7952 C   0  0  0  0  0  0  0  0  0  0  0  0
    1.8834    8.1915    8.6743 C   0  0  0  0  0  0  0  0  0  0  0  0
    2.0740    7.7570   10.1325 C   0  0  0  0  0  0  0  0  0  0  0  0
    3.3641    7.6174   10.4683 F   0  0  0  0  0  0  0  0  0  0  0  0
    1.4954    6.5799   10.4208 F   0  0  0  0  0  0  0  0  0  0  0  0
    1.5584    8.6481   10.9948 F   0  0  0  0  0  0  0  0  0  0  0  0
    0.4081    8.4959    8.3926 C   0  0  0  0  0  0  0  0  0  0  0  0
   -0.4242    7.2299    8.2070 C   0  0  0  0  0  0  0  0  0  0  0  0
    0.1224    6.3339    7.0914 C   0  0  0  0  0  0  0  0  0  0  0  0
   -0.1670    6.9397    5.7123 C   0  0  0  0  0  0  0  0  0  0  0  0
   -1.4676    7.2383    5.5581 F   0  0  0  0  0  0  0  0  0  0  0  0
    0.1485    6.1121    4.7066 F   0  0  0  0  0  0  0  0  0  0  0  0
    0.5089    8.0735    5.4675 F   0  0  0  0  0  0  0  0  0  0  0  0
    1.8861    3.8840    5.9750 C   0  0  0  0  0  0  0  0  0  0  0  0
    0.2105    3.3395    5.9011 S   0  0  0  0  0  0  0  0  0  0  0  0
    0.6743    1.9616    4.9774 C   0  0  0  0  0  0  0  0  0  0  0  0
    0.1416    0.8676    4.2958 C   0  0  0  0  0  0  0  0  0  0  0  0
    1.2305    0.1926    3.7048 C   0  0  0  0  0  0  0  0  0  0  0  0
    2.3973    0.8449    3.9997 N   0  0  0  0  0  0  0  0  0  0  0  0
    3.7263    0.4129    3.6564 C   0  0  0  0  0  0  0  0  0  0  0  0
    4.3078   -0.5103    4.7258 C   0  0  0  0  0  0  0  0  0  0  0  0
    2.0704    1.9234    4.7784 C   0  0  0  0  0  0  0  0  0  0  0  0
    2.7441    3.0059    5.3447 C   0  0  0  0  0  0  0  0  0  0  0  0
    0.8522   -0.8950    2.9122 C   0  0  0  0  0  0  0  0  0  0  0  0
   -0.5154   -1.0517    2.8810 C   0  0  0  0  0  0  0  0  0  0  0  0
   -1.3627    0.1310    3.8756 S   0  0  0  0  0  0  0  0  0  0  0  0
   -1.2459   -1.9574    2.0680 C   0  0  0  0  0  0  0  0  0  0  0  0
   -0.3607   -3.0046    0.9592 S   0  0  0  0  0  0  0  0  0  0  0  0
   -1.8463   -3.5377    0.2681 C   0  0  0  0  0  0  0  0  0  0  0  0
   -2.3415   -4.3048   -0.7849 C   0  0  0  0  0  0  0  0  0  0  0  0
   -3.7450   -4.1668   -0.7621 C   0  0  0  0  0  0  0  0  0  0  0  0
   -4.1130   -3.3725    0.2944 N   0  0  0  0  0  0  0  0  0  0  0  0
   -5.4420   -2.9007    0.5822 C   0  0  0  0  0  0  0  0  0  0  0  0
   -5.7628   -1.6185   -0.1842 C   0  0  0  0  0  0  0  0  0  0  0  0
   -2.9592   -2.9533    0.9063 C   0  0  0  0  0  0  0  0  0  0  0  0
   -2.6118   -2.0622    1.9282 C   0  0  0  0  0  0  0  0  0  0  0  0
   -4.3839   -4.8039   -1.8318 C   0  0  0  0  0  0  0  0  0  0  0  0
   -3.4788   -5.4220   -2.6692 C   0  0  0  0  0  0  0  0  0  0  0  0
   -1.8155   -5.2578   -2.1191 S   0  0  0  0  0  0  0  0  0  0  0  0
   -3.7278   -6.0512   -3.9211 C   0  0  0  0  0  0  0  0  0  0  0  0
   -2.3907   -6.8040   -4.7807 S   0  0  0  0  0  0  0  0  0  0  0  0
   -3.4203   -7.1212   -6.1251 C   0  0  0  0  0  0  0  0  0  0  0  0
   -3.3956   -7.6320   -7.4235 C   0  0  0  0  0  0  0  0  0  0  0  0
   -4.6951   -7.4763   -7.9443 C   0  0  0  0  0  0  0  0  0  0  0  0
   -5.5032   -6.8861   -7.0064 N   0  0  0  0  0  0  0  0  0  0  0  0
   -6.9175   -6.6513   -7.1326 C   0  0  0  0  0  0  0  0  0  0  0  0
   -7.7300   -7.8858   -6.7459 C   0  0  0  0  0  0  0  0  0  0  0  0
   -4.7369   -6.6752   -5.8895 C   0  0  0  0  0  0  0  0  0  0  0  0
   -4.9071   -6.0773   -4.6350 C   0  0  0  0  0  0  0  0  0  0  0  0
   -4.8257   -7.9007   -9.2728 C   0  0  0  0  0  0  0  0  0  0  0  0
   -3.6402   -8.3900   -9.7703 C   0  0  0  0  0  0  0  0  0  0  0  0
   -2.3355   -8.3360   -8.5814 S   0  0  0  0  0  0  0  0  0  0  0  0
   -3.2938   -8.8720  -11.0746 C   0  0  0  0  0  0  0  0  0  0  0  0
   -1.9254   -9.9408  -11.2085 S   0  0  0  0  0  0  0  0  0  0  0  0
   -2.0010   -9.9123  -12.9166 C   0  0  0  0  0  0  0  0  0  0  0  0
   -3.0152   -9.1266  -13.3760 C   0  0  0  0  0  0  0  0  0  0  0  0
   -3.7796   -8.5531  -12.3252 C   0  0  0  0  0  0  0  0  0  0  0  0
   -4.9773   -7.7065  -12.6383 C   0  0  0  0  0  0  0  0  0  0  0  0
   -6.2268   -8.5934  -12.7300 C   0  0  0  0  0  0  0  0  0  0  0  0
   -7.2305   -7.9968  -13.3967 F   0  0  0  0  0  0  0  0  0  0  0  0
   -6.7316   -8.9004  -11.5242 F   0  0  0  0  0  0  0  0  0  0  0  0
   -6.0134   -9.7660  -13.3413 F   0  0  0  0  0  0  0  0  0  0  0  0
   -4.7488   -6.9661  -13.9616 C   0  0  0  0  0  0  0  0  0  0  0  0
   -4.4651   -7.9451  -15.0981 C   0  0  0  0  0  0  0  0  0  0  0  0
   -3.2146   -8.7969  -14.8331 C   0  0  0  0  0  0  0  0  0  0  0  0
   -1.9687   -8.0568  -15.3303 C   0  0  0  0  0  0  0  0  0  0  0  0
   -0.8665   -8.8192  -15.2939 F   0  0  0  0  0  0  0  0  0  0  0  0
   -1.6919   -6.9551  -14.6183 F   0  0  0  0  0  0  0  0  0  0  0  0
   -2.0936   -7.6575  -16.6074 F   0  0  0  0  0  0  0  0  0  0  0  0
   10.3752   12.4492    9.0642 H   0  0  0  0  0  0  0  0  0  0  0  0
    9.0757    6.5037    7.1628 H   0  0  0  0  0  0  0  0  0  0  0  0
   10.4180    7.6161    7.4985 H   0  0  0  0  0  0  0  0  0  0  0  0
    8.8317    6.0667    9.6129 H   0  0  0  0  0  0  0  0  0  0  0  0
   10.4628    5.6667    9.0593 H   0  0  0  0  0  0  0  0  0  0  0  0
   10.1703    7.1680    9.9464 H   0  0  0  0  0  0  0  0  0  0  0  0
   11.0219    9.9900    8.4872 H   0  0  0  0  0  0  0  0  0  0  0  0
    6.4735    6.1488    7.5607 H   0  0  0  0  0  0  0  0  0  0  0  0
    2.4628    9.1124    8.5655 H   0  0  0  0  0  0  0  0  0  0  0  0
   -0.0016    9.0790    9.2193 H   0  0  0  0  0  0  0  0  0  0  0  0
    0.3554    9.1153    7.4981 H   0  0  0  0  0  0  0  0  0  0  0  0
   -1.4545    7.5056    7.9759 H   0  0  0  0  0  0  0  0  0  0  0  0
   -0.4354    6.6480    9.1284 H   0  0  0  0  0  0  0  0  0  0  0  0
   -0.4082    5.3778    7.1098 H   0  0  0  0  0  0  0  0  0  0  0  0
    3.6787   -0.1074    2.6962 H   0  0  0  0  0  0  0  0  0  0  0  0
    4.3553    1.2998    3.5421 H   0  0  0  0  0  0  0  0  0  0  0  0
    4.3563    0.0055    5.6821 H   0  0  0  0  0  0  0  0  0  0  0  0
    5.3093   -0.8236    4.4449 H   0  0  0  0  0  0  0  0  0  0  0  0
    3.6834   -1.3933    4.8398 H   0  0  0  0  0  0  0  0  0  0  0  0
    3.8049    3.1732    5.2940 H   0  0  0  0  0  0  0  0  0  0  0  0
    1.5193   -1.5317    2.3600 H   0  0  0  0  0  0  0  0  0  0  0  0
   -5.5154   -2.7224    1.6585 H   0  0  0  0  0  0  0  0  0  0  0  0
   -6.1500   -3.6889    0.3115 H   0  0  0  0  0  0  0  0  0  0  0  0
   -5.6863   -1.7913   -1.2553 H   0  0  0  0  0  0  0  0  0  0  0  0
   -5.0631   -0.8325    0.0895 H   0  0  0  0  0  0  0  0  0  0  0  0
   -6.7710   -1.2863    0.0474 H   0  0  0  0  0  0  0  0  0  0  0  0
   -3.2989   -1.4896    2.5247 H   0  0  0  0  0  0  0  0  0  0  0  0
   -5.4439   -4.8062   -2.0060 H   0  0  0  0  0  0  0  0  0  0  0  0
   -7.1291   -6.3755   -8.1695 H   0  0  0  0  0  0  0  0  0  0  0  0
   -7.1812   -5.8085   -6.4883 H   0  0  0  0  0  0  0  0  0  0  0  0
   -7.5207   -8.1670   -5.7165 H   0  0  0  0  0  0  0  0  0  0  0  0
   -7.4735   -8.7212   -7.3928 H   0  0  0  0  0  0  0  0  0  0  0  0
   -8.7921   -7.6798   -6.8451 H   0  0  0  0  0  0  0  0  0  0  0  0
   -5.8267   -5.6606   -4.2681 H   0  0  0  0  0  0  0  0  0  0  0  0
   -5.7507   -7.8879   -9.8123 H   0  0  0  0  0  0  0  0  0  0  0  0
   -1.2810  -10.4639  -13.4864 H   0  0  0  0  0  0  0  0  0  0  0  0
   -5.1626   -6.9883  -11.8332 H   0  0  0  0  0  0  0  0  0  0  0  0
   -5.6270   -6.3686  -14.2103 H   0  0  0  0  0  0  0  0  0  0  0  0
   -3.9045   -6.2893  -13.8263 H   0  0  0  0  0  0  0  0  0  0  0  0
   -5.3184   -8.6074  -15.2402 H   0  0  0  0  0  0  0  0  0  0  0  0
   -4.3339   -7.3892  -16.0279 H   0  0  0  0  0  0  0  0  0  0  0  0
   -3.2600   -9.7176  -15.4252 H   0  0  0  0  0  0  0  0  0  0  0  0
  1  2  1  0  0  0  0
  2  3  1  0  0  0  0
  3  4  1  0  0  0  0
  4  5  2  0  0  0  0
  5  6  1  0  0  0  0
  6  7  1  0  0  0  0
  7  8  1  0  0  0  0
  6  9  1  0  0  0  0
  9 10  1  0  0  0  0
  5 11  1  0  0  0  0
 11 12  2  0  0  0  0
 12 13  1  0  0  0  0
 12 14  1  0  0  0  0
 14 15  1  0  0  0  0
 15 16  1  0  0  0  0
 16 17  2  0  0  0  0
 17 18  1  0  0  0  0
 18 19  1  0  0  0  0
 19 20  1  0  0  0  0
 20 21  1  0  0  0  0
 20 22  1  0  0  0  0
 20 23  1  0  0  0  0
 19 24  1  0  0  0  0
 24 25  1  0  0  0  0
 25 26  1  0  0  0  0
 26 27  1  0  0  0  0
 27 28  1  0  0  0  0
 27 29  1  0  0  0  0
 27 30  1  0  0  0  0
 16 31  1  0  0  0  0
 31 32  1  0  0  0  0
 32 33  1  0  0  0  0
 33 34  1  0  0  0  0
 34 35  2  0  0  0  0
 35 36  1  0  0  0  0
 36 37  1  0  0  0  0
 37 38  1  0  0  0  0
 36 39  1  0  0  0  0
 39 40  1  0  0  0  0
 35 41  1  0  0  0  0
 41 42  2  0  0  0  0
 42 43  1  0  0  0  0
 42 44  1  0  0  0  0
 44 45  1  0  0  0  0
 45 46  1  0  0  0  0
 46 47  1  0  0  0  0
 47 48  2  0  0  0  0
 48 49  1  0  0  0  0
 49 50  1  0  0  0  0
 50 51  1  0  0  0  0
 49 52  1  0  0  0  0
 52 53  1  0  0  0  0
 48 54  1  0  0  0  0
 54 55  2  0  0  0  0
 55 56  1  0  0  0  0
 55 57  1  0  0  0  0
 57 58  1  0  0  0  0
 58 59  1  0  0  0  0
 59 60  1  0  0  0  0
 60 61  2  0  0  0  0
 61 62  1  0  0  0  0
 62 63  1  0  0  0  0
 63 64  1  0  0  0  0
 62 65  1  0  0  0  0
 65 66  1  0  0  0  0
 61 67  1  0  0  0  0
 67 68  2  0  0  0  0
 68 69  1  0  0  0  0
 68 70  1  0  0  0  0
 70 71  1  0  0  0  0
 71 72  1  0  0  0  0
 72 73  2  0  0  0  0
 73 74  1  0  0  0  0
 74 75  1  0  0  0  0
 75 76  1  0  0  0  0
 76 77  1  0  0  0  0
 76 78  1  0  0  0  0
 76 79  1  0  0  0  0
 75 80  1  0  0  0  0
 80 81  1  0  0  0  0
 81 82  1  0  0  0  0
 82 83  1  0  0  0  0
 83 84  1  0  0  0  0
 83 85  1  0  0  0  0
 83 86  1  0  0  0  0
 10  1  2  0  0  0  0
 18 14  2  0  0  0  0
 40 31  2  0  0  0  0
 53 44  2  0  0  0  0
 66 57  2  0  0  0  0
 74 70  2  0  0  0  0
  9  3  2  0  0  0  0
 26 17  1  0  0  0  0
 39 33  2  0  0  0  0
 52 46  2  0  0  0  0
 65 59  2  0  0  0  0
 82 73  1  0  0  0  0
 13  4  1  0  0  0  0
 43 34  1  0  0  0  0
 56 47  1  0  0  0  0
 69 60  1  0  0  0  0
  1 87  1  0  0  0  0
  7 88  1  0  0  0  0
  7 89  1  0  0  0  0
  8 90  1  0  0  0  0
  8 91  1  0  0  0  0
  8 92  1  0  0  0  0
 10 93  1  0  0  0  0
 11 94  1  0  0  0  0
 19 95  1  0  0  0  0
 24 96  1  0  0  0  0
 24 97  1  0  0  0  0
 25 98  1  0  0  0  0
 25 99  1  0  0  0  0
 26100  1  0  0  0  0
 37101  1  0  0  0  0
 37102  1  0  0  0  0
 38103  1  0  0  0  0
 38104  1  0  0  0  0
 38105  1  0  0  0  0
 40106  1  0  0  0  0
 41107  1  0  0  0  0
 50108  1  0  0  0  0
 50109  1  0  0  0  0
 51110  1  0  0  0  0
 51111  1  0  0  0  0
 51112  1  0  0  0  0
 53113  1  0  0  0  0
 54114  1  0  0  0  0
 63115  1  0  0  0  0
 63116  1  0  0  0  0
 64117  1  0  0  0  0
 64118  1  0  0  0  0
 64119  1  0  0  0  0
 66120  1  0  0  0  0
 67121  1  0  0  0  0
 72122  1  0  0  0  0
 75123  1  0  0  0  0
 80124  1  0  0  0  0
 80125  1  0  0  0  0
 81126  1  0  0  0  0
 81127  1  0  0  0  0
 82128  1  0  0  0  0
M  END
