
  xtb     02282221043D
 energy: -251.089957889578 gnorm: 0.000286098319 xtb: 6.4.1 (unknown)
128143  0     0  0            999 V2000
   14.8839   -4.5838    2.5815 C   0  0  0  0  0  0  0  0  0  0  0  0
   13.8802   -4.9277    3.9550 S   0  0  0  0  0  0  0  0  0  0  0  0
   12.5034   -4.3325    3.1003 C   0  0  0  0  0  0  0  0  0  0  0  0
   11.1283   -4.1205    3.2391 C   0  0  0  0  0  0  0  0  0  0  0  0
   10.6822   -3.5625    2.0257 C   0  0  0  0  0  0  0  0  0  0  0  0
   11.7334   -3.4469    1.1545 N   0  0  0  0  0  0  0  0  0  0  0  0
   11.6906   -2.8346   -0.1471 C   0  0  0  0  0  0  0  0  0  0  0  0
   11.8875   -1.3218   -0.0640 C   0  0  0  0  0  0  0  0  0  0  0  0
   12.8498   -3.8973    1.8087 C   0  0  0  0  0  0  0  0  0  0  0  0
   14.2215   -4.0469    1.5226 C   0  0  0  0  0  0  0  0  0  0  0  0
    9.3100   -3.2840    2.0073 C   0  0  0  0  0  0  0  0  0  0  0  0
    8.7063   -3.6256    3.1949 C   0  0  0  0  0  0  0  0  0  0  0  0
    9.8351   -4.3052    4.3658 S   0  0  0  0  0  0  0  0  0  0  0  0
    7.3349   -3.4809    3.5374 C   0  0  0  0  0  0  0  0  0  0  0  0
    6.2201   -2.7871    2.3625 S   0  0  0  0  0  0  0  0  0  0  0  0
    4.9196   -2.9653    3.4813 C   0  0  0  0  0  0  0  0  0  0  0  0
    3.5494   -2.7359    3.6101 C   0  0  0  0  0  0  0  0  0  0  0  0
    3.1870   -3.1711    4.9008 C   0  0  0  0  0  0  0  0  0  0  0  0
    4.2946   -3.6379    5.5606 N   0  0  0  0  0  0  0  0  0  0  0  0
    4.3076   -4.2730    6.8525 C   0  0  0  0  0  0  0  0  0  0  0  0
    3.9744   -5.7601    6.7496 C   0  0  0  0  0  0  0  0  0  0  0  0
    5.3522   -3.5339    4.6961 C   0  0  0  0  0  0  0  0  0  0  0  0
    6.7222   -3.8240    4.7204 C   0  0  0  0  0  0  0  0  0  0  0  0
    1.8263   -3.0082    5.1903 C   0  0  0  0  0  0  0  0  0  0  0  0
    1.1434   -2.4550    4.1310 C   0  0  0  0  0  0  0  0  0  0  0  0
    2.1897   -2.1289    2.7474 S   0  0  0  0  0  0  0  0  0  0  0  0
   -0.2359   -2.1016    3.9816 C   0  0  0  0  0  0  0  0  0  0  0  0
   -0.8900   -2.0407    2.3790 S   0  0  0  0  0  0  0  0  0  0  0  0
   -2.4333   -1.4705    2.9543 C   0  0  0  0  0  0  0  0  0  0  0  0
   -2.4170   -1.3067    4.3148 C   0  0  0  0  0  0  0  0  0  0  0  0
   -1.1816   -1.6998    4.8989 C   0  0  0  0  0  0  0  0  0  0  0  0
   -0.9688   -1.6848    6.3832 C   0  0  0  0  0  0  0  0  0  0  0  0
   -1.4107   -3.0320    6.9610 C   0  0  0  0  0  0  0  0  0  0  0  0
   -1.0360   -3.1538    8.2511 F   0  0  0  0  0  0  0  0  0  0  0  0
   -2.7380   -3.2047    6.9430 F   0  0  0  0  0  0  0  0  0  0  0  0
   -0.8819   -4.0832    6.3248 F   0  0  0  0  0  0  0  0  0  0  0  0
   -1.7327   -0.5567    7.1102 C   0  0  0  0  0  0  0  0  0  0  0  0
   -2.6109    0.2597    6.1697 C   0  0  0  0  0  0  0  0  0  0  0  0
   -3.4191   -0.6624    5.2386 C   0  0  0  0  0  0  0  0  0  0  0  0
   -4.5042    0.1642    4.5632 C   0  0  0  0  0  0  0  0  0  0  0  0
   -4.0350    1.0332    3.6627 F   0  0  0  0  0  0  0  0  0  0  0  0
   -5.4315   -0.5855    3.9492 F   0  0  0  0  0  0  0  0  0  0  0  0
   -5.1890    0.8921    5.4642 F   0  0  0  0  0  0  0  0  0  0  0  0
   -3.4159   -1.2005    1.9248 C   0  0  0  0  0  0  0  0  0  0  0  0
   -2.9811    0.0261    0.7733 S   0  0  0  0  0  0  0  0  0  0  0  0
   -4.4355   -0.2234   -0.1346 C   0  0  0  0  0  0  0  0  0  0  0  0
   -5.2224   -1.1899    0.4589 C   0  0  0  0  0  0  0  0  0  0  0  0
   -4.6069   -1.7961    1.5904 C   0  0  0  0  0  0  0  0  0  0  0  0
   -5.2093   -3.0274    2.2258 C   0  0  0  0  0  0  0  0  0  0  0  0
   -4.1610   -4.0775    2.5945 C   0  0  0  0  0  0  0  0  0  0  0  0
   -3.1994   -4.2076    1.6715 F   0  0  0  0  0  0  0  0  0  0  0  0
   -4.7088   -5.2988    2.7300 F   0  0  0  0  0  0  0  0  0  0  0  0
   -3.5549   -3.8397    3.7663 F   0  0  0  0  0  0  0  0  0  0  0  0
   -6.2021   -3.6616    1.2437 C   0  0  0  0  0  0  0  0  0  0  0  0
   -7.2558   -2.6345    0.8726 C   0  0  0  0  0  0  0  0  0  0  0  0
   -6.6393   -1.4963    0.0468 C   0  0  0  0  0  0  0  0  0  0  0  0
   -7.5280   -0.2674    0.2563 C   0  0  0  0  0  0  0  0  0  0  0  0
   -7.2450    0.7705   -0.5389 F   0  0  0  0  0  0  0  0  0  0  0  0
   -8.8203   -0.5651    0.0101 F   0  0  0  0  0  0  0  0  0  0  0  0
   -7.4784    0.1892    1.5117 F   0  0  0  0  0  0  0  0  0  0  0  0
   -4.5739    0.5133   -1.3554 C   0  0  0  0  0  0  0  0  0  0  0  0
   -3.7017    2.0355   -1.4907 S   0  0  0  0  0  0  0  0  0  0  0  0
   -4.2082    2.2003   -3.1270 C   0  0  0  0  0  0  0  0  0  0  0  0
   -4.0854    3.0391   -4.2366 C   0  0  0  0  0  0  0  0  0  0  0  0
   -4.8268    2.4445   -5.2773 C   0  0  0  0  0  0  0  0  0  0  0  0
   -5.4099    1.2879   -4.8292 N   0  0  0  0  0  0  0  0  0  0  0  0
   -6.1767    0.3593   -5.6158 C   0  0  0  0  0  0  0  0  0  0  0  0
   -5.2831   -0.6830   -6.2868 C   0  0  0  0  0  0  0  0  0  0  0  0
   -5.0224    1.1205   -3.5245 C   0  0  0  0  0  0  0  0  0  0  0  0
   -5.2210    0.1677   -2.5200 C   0  0  0  0  0  0  0  0  0  0  0  0
   -4.7828    3.1629   -6.4774 C   0  0  0  0  0  0  0  0  0  0  0  0
   -4.0141    4.3015   -6.3599 C   0  0  0  0  0  0  0  0  0  0  0  0
   -3.3352    4.5036   -4.7507 S   0  0  0  0  0  0  0  0  0  0  0  0
   -3.7298    5.2618   -7.3720 C   0  0  0  0  0  0  0  0  0  0  0  0
   -2.7585    6.6761   -6.9841 S   0  0  0  0  0  0  0  0  0  0  0  0
   -2.8922    7.2300   -8.6107 C   0  0  0  0  0  0  0  0  0  0  0  0
   -2.5008    8.2770   -9.4519 C   0  0  0  0  0  0  0  0  0  0  0  0
   -3.0349    7.9967  -10.7215 C   0  0  0  0  0  0  0  0  0  0  0  0
   -3.7210    6.8103  -10.6860 N   0  0  0  0  0  0  0  0  0  0  0  0
   -4.4869    6.2370  -11.7602 C   0  0  0  0  0  0  0  0  0  0  0  0
   -5.9155    6.7786  -11.7860 C   0  0  0  0  0  0  0  0  0  0  0  0
   -3.6549    6.3457   -9.3974 C   0  0  0  0  0  0  0  0  0  0  0  0
   -4.1279    5.2331   -8.6910 C   0  0  0  0  0  0  0  0  0  0  0  0
   -2.7184    8.9746  -11.6852 C   0  0  0  0  0  0  0  0  0  0  0  0
   -1.9619    9.9654  -11.1421 C   0  0  0  0  0  0  0  0  0  0  0  0
   -1.6057    9.7528   -9.4570 S   0  0  0  0  0  0  0  0  0  0  0  0
   15.9298   -4.8072    2.6507 H   0  0  0  0  0  0  0  0  0  0  0  0
   10.7215   -3.0616   -0.6002 H   0  0  0  0  0  0  0  0  0  0  0  0
   12.4756   -3.2831   -0.7620 H   0  0  0  0  0  0  0  0  0  0  0  0
   12.8499   -1.0914    0.3871 H   0  0  0  0  0  0  0  0  0  0  0  0
   11.8523   -0.8850   -1.0582 H   0  0  0  0  0  0  0  0  0  0  0  0
   11.1046   -0.8740    0.5436 H   0  0  0  0  0  0  0  0  0  0  0  0
   14.6964   -3.7753    0.5973 H   0  0  0  0  0  0  0  0  0  0  0  0
    8.7668   -2.8546    1.1849 H   0  0  0  0  0  0  0  0  0  0  0  0
    5.3014   -4.1381    7.2873 H   0  0  0  0  0  0  0  0  0  0  0  0
    3.5768   -3.7687    7.4910 H   0  0  0  0  0  0  0  0  0  0  0  0
    3.9928   -6.2157    7.7356 H   0  0  0  0  0  0  0  0  0  0  0  0
    2.9848   -5.8950    6.3193 H   0  0  0  0  0  0  0  0  0  0  0  0
    4.7000   -6.2648    6.1160 H   0  0  0  0  0  0  0  0  0  0  0  0
    7.2582   -4.2620    5.5427 H   0  0  0  0  0  0  0  0  0  0  0  0
    1.3690   -3.3376    6.1027 H   0  0  0  0  0  0  0  0  0  0  0  0
    0.1039   -1.6108    6.5856 H   0  0  0  0  0  0  0  0  0  0  0  0
   -1.0205    0.1091    7.5966 H   0  0  0  0  0  0  0  0  0  0  0  0
   -2.3590   -0.9916    7.8916 H   0  0  0  0  0  0  0  0  0  0  0  0
   -3.2796    0.8807    6.7658 H   0  0  0  0  0  0  0  0  0  0  0  0
   -1.9944    0.9162    5.5514 H   0  0  0  0  0  0  0  0  0  0  0  0
   -3.9416   -1.4258    5.8273 H   0  0  0  0  0  0  0  0  0  0  0  0
   -5.7310   -2.7704    3.1541 H   0  0  0  0  0  0  0  0  0  0  0  0
   -6.6804   -4.5250    1.7061 H   0  0  0  0  0  0  0  0  0  0  0  0
   -5.6676   -3.9982    0.3523 H   0  0  0  0  0  0  0  0  0  0  0  0
   -8.0613   -3.1006    0.3049 H   0  0  0  0  0  0  0  0  0  0  0  0
   -7.6832   -2.2258    1.7909 H   0  0  0  0  0  0  0  0  0  0  0  0
   -6.6850   -1.7396   -1.0185 H   0  0  0  0  0  0  0  0  0  0  0  0
   -6.8999   -0.1310   -4.9582 H   0  0  0  0  0  0  0  0  0  0  0  0
   -6.7266    0.9253   -6.3726 H   0  0  0  0  0  0  0  0  0  0  0  0
   -5.8851   -1.3707   -6.8744 H   0  0  0  0  0  0  0  0  0  0  0  0
   -4.7350   -1.2481   -5.5367 H   0  0  0  0  0  0  0  0  0  0  0  0
   -4.5654   -0.1956   -6.9424 H   0  0  0  0  0  0  0  0  0  0  0  0
   -5.7786   -0.7406   -2.6512 H   0  0  0  0  0  0  0  0  0  0  0  0
   -5.2778    2.8765   -7.3865 H   0  0  0  0  0  0  0  0  0  0  0  0
   -4.4992    5.1514  -11.6294 H   0  0  0  0  0  0  0  0  0  0  0  0
   -3.9818    6.4667  -12.7026 H   0  0  0  0  0  0  0  0  0  0  0  0
   -6.4205    6.5510  -10.8502 H   0  0  0  0  0  0  0  0  0  0  0  0
   -6.4720    6.3294  -12.6041 H   0  0  0  0  0  0  0  0  0  0  0  0
   -5.9057    7.8578  -11.9188 H   0  0  0  0  0  0  0  0  0  0  0  0
   -4.7258    4.4451   -9.1099 H   0  0  0  0  0  0  0  0  0  0  0  0
   -3.0278    8.9559  -12.7145 H   0  0  0  0  0  0  0  0  0  0  0  0
   -1.5777   10.8362  -11.6349 H   0  0  0  0  0  0  0  0  0  0  0  0
  1  2  1  0  0  0  0
  2  3  1  0  0  0  0
  3  4  1  0  0  0  0
  4  5  2  0  0  0  0
  5  6  1  0  0  0  0
  6  7  1  0  0  0  0
  7  8  1  0  0  0  0
  6  9  1  0  0  0  0
  9 10  1  0  0  0  0
  5 11  1  0  0  0  0
 11 12  2  0  0  0  0
 12 13  1  0  0  0  0
 12 14  1  0  0  0  0
 14 15  1  0  0  0  0
 15 16  1  0  0  0  0
 16 17  1  0  0  0  0
 17 18  2  0  0  0  0
 18 19  1  0  0  0  0
 19 20  1  0  0  0  0
 20 21  1  0  0  0  0
 19 22  1  0  0  0  0
 22 23  1  0  0  0  0
 18 24  1  0  0  0  0
 24 25  2  0  0  0  0
 25 26  1  0  0  0  0
 25 27  1  0  0  0  0
 27 28  1  0  0  0  0
 28 29  1  0  0  0  0
 29 30  2  0  0  0  0
 30 31  1  0  0  0  0
 31 32  1  0  0  0  0
 32 33  1  0  0  0  0
 33 34  1  0  0  0  0
 33 35  1  0  0  0  0
 33 36  1  0  0  0  0
 32 37  1  0  0  0  0
 37 38  1  0  0  0  0
 38 39  1  0  0  0  0
 39 40  1  0  0  0  0
 40 41  1  0  0  0  0
 40 42  1  0  0  0  0
 40 43  1  0  0  0  0
 29 44  1  0  0  0  0
 44 45  1  0  0  0  0
 45 46  1  0  0  0  0
 46 47  2  0  0  0  0
 47 48  1  0  0  0  0
 48 49  1  0  0  0  0
 49 50  1  0  0  0  0
 50 51  1  0  0  0  0
 50 52  1  0  0  0  0
 50 53  1  0  0  0  0
 49 54  1  0  0  0  0
 54 55  1  0  0  0  0
 55 56  1  0  0  0  0
 56 57  1  0  0  0  0
 57 58  1  0  0  0  0
 57 59  1  0  0  0  0
 57 60  1  0  0  0  0
 46 61  1  0  0  0  0
 61 62  1  0  0  0  0
 62 63  1  0  0  0  0
 63 64  1  0  0  0  0
 64 65  2  0  0  0  0
 65 66  1  0  0  0  0
 66 67  1  0  0  0  0
 67 68  1  0  0  0  0
 66 69  1  0  0  0  0
 69 70  1  0  0  0  0
 65 71  1  0  0  0  0
 71 72  2  0  0  0  0
 72 73  1  0  0  0  0
 72 74  1  0  0  0  0
 74 75  1  0  0  0  0
 75 76  1  0  0  0  0
 76 77  1  0  0  0  0
 77 78  2  0  0  0  0
 78 79  1  0  0  0  0
 79 80  1  0  0  0  0
 80 81  1  0  0  0  0
 79 82  1  0  0  0  0
 82 83  1  0  0  0  0
 78 84  1  0  0  0  0
 84 85  2  0  0  0  0
 85 86  1  0  0  0  0
 10  1  2  0  0  0  0
 23 14  2  0  0  0  0
 31 27  2  0  0  0  0
 48 44  2  0  0  0  0
 70 61  2  0  0  0  0
 83 74  2  0  0  0  0
  9  3  2  0  0  0  0
 22 16  2  0  0  0  0
 39 30  1  0  0  0  0
 56 47  1  0  0  0  0
 69 63  2  0  0  0  0
 82 76  2  0  0  0  0
 13  4  1  0  0  0  0
 26 17  1  0  0  0  0
 73 64  1  0  0  0  0
 86 77  1  0  0  0  0
  1 87  1  0  0  0  0
  7 88  1  0  0  0  0
  7 89  1  0  0  0  0
  8 90  1  0  0  0  0
  8 91  1  0  0  0  0
  8 92  1  0  0  0  0
 10 93  1  0  0  0  0
 11 94  1  0  0  0  0
 20 95  1  0  0  0  0
 20 96  1  0  0  0  0
 21 97  1  0  0  0  0
 21 98  1  0  0  0  0
 21 99  1  0  0  0  0
 23100  1  0  0  0  0
 24101  1  0  0  0  0
 32102  1  0  0  0  0
 37103  1  0  0  0  0
 37104  1  0  0  0  0
 38105  1  0  0  0  0
 38106  1  0  0  0  0
 39107  1  0  0  0  0
 49108  1  0  0  0  0
 54109  1  0  0  0  0
 54110  1  0  0  0  0
 55111  1  0  0  0  0
 55112  1  0  0  0  0
 56113  1  0  0  0  0
 67114  1  0  0  0  0
 67115  1  0  0  0  0
 68116  1  0  0  0  0
 68117  1  0  0  0  0
 68118  1  0  0  0  0
 70119  1  0  0  0  0
 71120  1  0  0  0  0
 80121  1  0  0  0  0
 80122  1  0  0  0  0
 81123  1  0  0  0  0
 81124  1  0  0  0  0
 81125  1  0  0  0  0
 83126  1  0  0  0  0
 84127  1  0  0  0  0
 85128  1  0  0  0  0
M  END
