
  xtb     02282222263D
 energy: -277.797407037204 gnorm: 0.000497657808 xtb: 6.4.1 (unknown)
131145  0     0  0            999 V2000
    4.1594    1.8056    3.4890 C   0  0  0  0  0  0  0  0  0  0  0  0
    3.2218    0.3606    3.3324 S   0  0  0  0  0  0  0  0  0  0  0  0
    4.1488   -0.1315    1.9439 C   0  0  0  0  0  0  0  0  0  0  0  0
    3.9219   -1.2897    1.1966 C   0  0  0  0  0  0  0  0  0  0  0  0
    4.7994   -1.4841    0.1162 C   0  0  0  0  0  0  0  0  0  0  0  0
    4.9849   -2.5107   -0.8612 C   0  0  0  0  0  0  0  0  0  0  0  0
    6.0220   -2.1138   -1.6342 C   0  0  0  0  0  0  0  0  0  0  0  0
    6.5315   -0.9237   -1.2464 O   0  0  0  0  0  0  0  0  0  0  0  0
    5.8079   -0.5286   -0.1718 C   0  0  0  0  0  0  0  0  0  0  0  0
    5.9996    0.6268    0.5582 C   0  0  0  0  0  0  0  0  0  0  0  0
    5.1468    0.8251    1.6413 C   0  0  0  0  0  0  0  0  0  0  0  0
    5.1200    1.9234    2.5532 C   0  0  0  0  0  0  0  0  0  0  0  0
    2.8511   -2.1837    1.5641 C   0  0  0  0  0  0  0  0  0  0  0  0
    2.1753   -2.9936    0.7318 C   0  0  0  0  0  0  0  0  0  0  0  0
    1.1216   -3.8684    1.1377 C   0  0  0  0  0  0  0  0  0  0  0  0
    0.6575   -4.0429    2.8229 S   0  0  0  0  0  0  0  0  0  0  0  0
   -0.6166   -5.1608    2.4031 C   0  0  0  0  0  0  0  0  0  0  0  0
   -1.5223   -5.7462    3.2823 C   0  0  0  0  0  0  0  0  0  0  0  0
   -2.4126   -6.6630    2.7063 C   0  0  0  0  0  0  0  0  0  0  0  0
   -3.4657   -7.4727    3.2302 C   0  0  0  0  0  0  0  0  0  0  0  0
   -3.9907   -8.1311    2.1710 C   0  0  0  0  0  0  0  0  0  0  0  0
   -3.3768   -7.8164    1.0075 O   0  0  0  0  0  0  0  0  0  0  0  0
   -2.4113   -6.9176    1.3137 C   0  0  0  0  0  0  0  0  0  0  0  0
   -1.5399   -6.3012    0.4426 C   0  0  0  0  0  0  0  0  0  0  0  0
   -0.6270   -5.4104    1.0049 C   0  0  0  0  0  0  0  0  0  0  0  0
    0.3630   -4.6551    0.3241 C   0  0  0  0  0  0  0  0  0  0  0  0
   -1.5805   -5.5200    4.7229 C   0  0  0  0  0  0  0  0  0  0  0  0
   -1.6431   -4.3535    5.3789 C   0  0  0  0  0  0  0  0  0  0  0  0
   -1.7034   -3.0350    4.8022 C   0  0  0  0  0  0  0  0  0  0  0  0
   -2.2826   -2.7584    3.1984 S   0  0  0  0  0  0  0  0  0  0  0  0
   -1.9226   -1.0606    3.2907 C   0  0  0  0  0  0  0  0  0  0  0  0
   -1.4134   -0.7254    4.5182 C   0  0  0  0  0  0  0  0  0  0  0  0
   -1.3179   -1.8487    5.3839 C   0  0  0  0  0  0  0  0  0  0  0  0
   -0.8396   -1.7261    6.8045 C   0  0  0  0  0  0  0  0  0  0  0  0
   -2.0617   -1.5266    7.7029 C   0  0  0  0  0  0  0  0  0  0  0  0
   -2.9476   -2.5254    7.6052 F   0  0  0  0  0  0  0  0  0  0  0  0
   -1.7237   -1.4520    9.0016 F   0  0  0  0  0  0  0  0  0  0  0  0
   -2.7292   -0.3962    7.4233 F   0  0  0  0  0  0  0  0  0  0  0  0
    0.1501   -0.5634    7.0361 C   0  0  0  0  0  0  0  0  0  0  0  0
    0.4628    0.2047    5.7590 C   0  0  0  0  0  0  0  0  0  0  0  0
   -0.8424    0.5708    5.0325 C   0  0  0  0  0  0  0  0  0  0  0  0
   -0.5566    1.6433    3.9904 C   0  0  0  0  0  0  0  0  0  0  0  0
    0.1284    2.6658    4.5305 F   0  0  0  0  0  0  0  0  0  0  0  0
    0.1722    1.2090    2.9592 F   0  0  0  0  0  0  0  0  0  0  0  0
   -1.6760    2.1897    3.4922 F   0  0  0  0  0  0  0  0  0  0  0  0
   -2.0361   -0.3277    2.0446 C   0  0  0  0  0  0  0  0  0  0  0  0
   -0.8561   -0.6756    0.8212 S   0  0  0  0  0  0  0  0  0  0  0  0
   -1.5617    0.4839   -0.2593 C   0  0  0  0  0  0  0  0  0  0  0  0
   -2.6824    1.0582    0.2923 C   0  0  0  0  0  0  0  0  0  0  0  0
   -2.9538    0.5847    1.6028 C   0  0  0  0  0  0  0  0  0  0  0  0
   -4.1696    1.0023    2.3814 C   0  0  0  0  0  0  0  0  0  0  0  0
   -5.2261   -0.1045    2.2844 C   0  0  0  0  0  0  0  0  0  0  0  0
   -4.9501   -1.1249    3.1111 F   0  0  0  0  0  0  0  0  0  0  0  0
   -6.4533    0.3204    2.6199 F   0  0  0  0  0  0  0  0  0  0  0  0
   -5.3365   -0.6388    1.0584 F   0  0  0  0  0  0  0  0  0  0  0  0
   -4.7046    2.3403    1.8679 C   0  0  0  0  0  0  0  0  0  0  0  0
   -4.8570    2.3234    0.3498 C   0  0  0  0  0  0  0  0  0  0  0  0
   -3.5109    2.1314   -0.3612 C   0  0  0  0  0  0  0  0  0  0  0  0
   -2.7329    3.4531   -0.4040 C   0  0  0  0  0  0  0  0  0  0  0  0
   -2.2739    3.8560    0.7815 F   0  0  0  0  0  0  0  0  0  0  0  0
   -1.6790    3.3937   -1.2308 F   0  0  0  0  0  0  0  0  0  0  0  0
   -3.5006    4.4552   -0.8724 F   0  0  0  0  0  0  0  0  0  0  0  0
   -0.9632    0.6797   -1.5564 C   0  0  0  0  0  0  0  0  0  0  0  0
   -1.9485    0.6853   -2.9852 S   0  0  0  0  0  0  0  0  0  0  0  0
   -0.5638    0.8750   -4.0173 C   0  0  0  0  0  0  0  0  0  0  0  0
    0.5940    0.9092   -3.2731 C   0  0  0  0  0  0  0  0  0  0  0  0
    0.3686    0.8076   -1.8782 C   0  0  0  0  0  0  0  0  0  0  0  0
    1.4777    0.9589   -0.8708 C   0  0  0  0  0  0  0  0  0  0  0  0
    1.3991    2.3527   -0.2371 C   0  0  0  0  0  0  0  0  0  0  0  0
    0.2854    2.5235    0.4810 F   0  0  0  0  0  0  0  0  0  0  0  0
    2.4236    2.5694    0.6053 F   0  0  0  0  0  0  0  0  0  0  0  0
    1.4341    3.3501   -1.1310 F   0  0  0  0  0  0  0  0  0  0  0  0
    2.8615    0.7313   -1.4877 C   0  0  0  0  0  0  0  0  0  0  0  0
    3.0157    1.4034   -2.8474 C   0  0  0  0  0  0  0  0  0  0  0  0
    1.9808    0.8919   -3.8512 C   0  0  0  0  0  0  0  0  0  0  0  0
    2.2912   -0.5426   -4.2943 C   0  0  0  0  0  0  0  0  0  0  0  0
    3.5757   -0.7019   -4.6478 F   0  0  0  0  0  0  0  0  0  0  0  0
    1.5613   -0.9102   -5.3577 F   0  0  0  0  0  0  0  0  0  0  0  0
    2.0472   -1.4677   -3.3506 F   0  0  0  0  0  0  0  0  0  0  0  0
   -0.7987    1.0060   -5.4251 C   0  0  0  0  0  0  0  0  0  0  0  0
    0.3097    1.8395   -6.4987 S   0  0  0  0  0  0  0  0  0  0  0  0
   -0.7537    1.6244   -7.8629 C   0  0  0  0  0  0  0  0  0  0  0  0
   -0.5108    2.0288   -9.1747 C   0  0  0  0  0  0  0  0  0  0  0  0
   -1.5209    1.6979  -10.0928 C   0  0  0  0  0  0  0  0  0  0  0  0
   -1.6907    1.9176  -11.4946 C   0  0  0  0  0  0  0  0  0  0  0  0
   -2.8882    1.3768  -11.8172 C   0  0  0  0  0  0  0  0  0  0  0  0
   -3.5132    0.8270  -10.7520 O   0  0  0  0  0  0  0  0  0  0  0  0
   -2.6944    1.0142   -9.6898 C   0  0  0  0  0  0  0  0  0  0  0  0
   -2.9208    0.6151   -8.3914 C   0  0  0  0  0  0  0  0  0  0  0  0
   -1.9244    0.9257   -7.4675 C   0  0  0  0  0  0  0  0  0  0  0  0
   -1.9204    0.6065   -6.0848 C   0  0  0  0  0  0  0  0  0  0  0  0
    0.6771    2.7235   -9.6435 C   0  0  0  0  0  0  0  0  0  0  0  0
    1.5273    3.4355   -8.9131 C   0  0  0  0  0  0  0  0  0  0  0  0
    3.9183    2.4861    4.2817 H   0  0  0  0  0  0  0  0  0  0  0  0
    4.4408   -3.4261   -0.9592 H   0  0  0  0  0  0  0  0  0  0  0  0
    6.4877   -2.5793   -2.4810 H   0  0  0  0  0  0  0  0  0  0  0  0
    6.7707    1.3357    0.3071 H   0  0  0  0  0  0  0  0  0  0  0  0
    5.7969    2.7556    2.4875 H   0  0  0  0  0  0  0  0  0  0  0  0
    2.5543   -2.1465    2.6062 H   0  0  0  0  0  0  0  0  0  0  0  0
    2.3834   -2.9941   -0.3286 H   0  0  0  0  0  0  0  0  0  0  0  0
   -3.7803   -7.5442    4.2506 H   0  0  0  0  0  0  0  0  0  0  0  0
   -4.7930   -8.8407    2.1088 H   0  0  0  0  0  0  0  0  0  0  0  0
   -1.5582   -6.4930   -0.6171 H   0  0  0  0  0  0  0  0  0  0  0  0
    0.4959   -4.6953   -0.7424 H   0  0  0  0  0  0  0  0  0  0  0  0
   -1.6138   -6.4283    5.3115 H   0  0  0  0  0  0  0  0  0  0  0  0
   -1.6666   -4.3872    6.4592 H   0  0  0  0  0  0  0  0  0  0  0  0
   -0.3906   -2.6722    7.1178 H   0  0  0  0  0  0  0  0  0  0  0  0
    1.0772   -0.9534    7.4540 H   0  0  0  0  0  0  0  0  0  0  0  0
   -0.2726    0.1288    7.7675 H   0  0  0  0  0  0  0  0  0  0  0  0
    1.0217    1.1041    6.0163 H   0  0  0  0  0  0  0  0  0  0  0  0
    1.0780   -0.3997    5.0898 H   0  0  0  0  0  0  0  0  0  0  0  0
   -1.5411    1.0316    5.7432 H   0  0  0  0  0  0  0  0  0  0  0  0
   -3.9294    1.0825    3.4461 H   0  0  0  0  0  0  0  0  0  0  0  0
   -5.6689    2.5542    2.3302 H   0  0  0  0  0  0  0  0  0  0  0  0
   -4.0030    3.1159    2.1726 H   0  0  0  0  0  0  0  0  0  0  0  0
   -5.3107    3.2579    0.0174 H   0  0  0  0  0  0  0  0  0  0  0  0
   -5.5210    1.5120    0.0506 H   0  0  0  0  0  0  0  0  0  0  0  0
   -3.6925    1.8767   -1.4111 H   0  0  0  0  0  0  0  0  0  0  0  0
    1.3423    0.2613   -0.0382 H   0  0  0  0  0  0  0  0  0  0  0  0
    3.0190   -0.3423   -1.5808 H   0  0  0  0  0  0  0  0  0  0  0  0
    3.6234    1.1134   -0.8073 H   0  0  0  0  0  0  0  0  0  0  0  0
    4.0200    1.2160   -3.2308 H   0  0  0  0  0  0  0  0  0  0  0  0
    2.8889    2.4815   -2.7532 H   0  0  0  0  0  0  0  0  0  0  0  0
    2.0302    1.4955   -4.7618 H   0  0  0  0  0  0  0  0  0  0  0  0
   -1.0185    2.4128  -12.1642 H   0  0  0  0  0  0  0  0  0  0  0  0
   -3.4054    1.3187  -12.7555 H   0  0  0  0  0  0  0  0  0  0  0  0
   -3.8138    0.0882   -8.1000 H   0  0  0  0  0  0  0  0  0  0  0  0
   -2.7259    0.0801   -5.6036 H   0  0  0  0  0  0  0  0  0  0  0  0
    0.8398    2.6458  -10.7103 H   0  0  0  0  0  0  0  0  0  0  0  0
    2.3786    3.9148   -9.3655 H   0  0  0  0  0  0  0  0  0  0  0  0
    1.4031    3.5909   -7.8560 H   0  0  0  0  0  0  0  0  0  0  0  0
  1  2  1  0  0  0  0
  2  3  1  0  0  0  0
  3  4  2  0  0  0  0
  4  5  1  0  0  0  0
  5  6  1  0  0  0  0
  6  7  2  0  0  0  0
  7  8  1  0  0  0  0
  8  9  1  0  0  0  0
  9 10  1  0  0  0  0
 10 11  2  0  0  0  0
 11 12  1  0  0  0  0
  4 13  1  0  0  0  0
 13 14  2  0  0  0  0
 14 15  1  0  0  0  0
 15 16  1  0  0  0  0
 16 17  1  0  0  0  0
 17 18  2  0  0  0  0
 18 19  1  0  0  0  0
 19 20  1  0  0  0  0
 20 21  2  0  0  0  0
 21 22  1  0  0  0  0
 22 23  1  0  0  0  0
 23 24  1  0  0  0  0
 24 25  2  0  0  0  0
 25 26  1  0  0  0  0
 18 27  1  0  0  0  0
 27 28  2  0  0  0  0
 28 29  1  0  0  0  0
 29 30  1  0  0  0  0
 30 31  1  0  0  0  0
 31 32  2  0  0  0  0
 32 33  1  0  0  0  0
 33 34  1  0  0  0  0
 34 35  1  0  0  0  0
 35 36  1  0  0  0  0
 35 37  1  0  0  0  0
 35 38  1  0  0  0  0
 34 39  1  0  0  0  0
 39 40  1  0  0  0  0
 40 41  1  0  0  0  0
 41 42  1  0  0  0  0
 42 43  1  0  0  0  0
 42 44  1  0  0  0  0
 42 45  1  0  0  0  0
 31 46  1  0  0  0  0
 46 47  1  0  0  0  0
 47 48  1  0  0  0  0
 48 49  2  0  0  0  0
 49 50  1  0  0  0  0
 50 51  1  0  0  0  0
 51 52  1  0  0  0  0
 52 53  1  0  0  0  0
 52 54  1  0  0  0  0
 52 55  1  0  0  0  0
 51 56  1  0  0  0  0
 56 57  1  0  0  0  0
 57 58  1  0  0  0  0
 58 59  1  0  0  0  0
 59 60  1  0  0  0  0
 59 61  1  0  0  0  0
 59 62  1  0  0  0  0
 48 63  1  0  0  0  0
 63 64  1  0  0  0  0
 64 65  1  0  0  0  0
 65 66  2  0  0  0  0
 66 67  1  0  0  0  0
 67 68  1  0  0  0  0
 68 69  1  0  0  0  0
 69 70  1  0  0  0  0
 69 71  1  0  0  0  0
 69 72  1  0  0  0  0
 68 73  1  0  0  0  0
 73 74  1  0  0  0  0
 74 75  1  0  0  0  0
 75 76  1  0  0  0  0
 76 77  1  0  0  0  0
 76 78  1  0  0  0  0
 76 79  1  0  0  0  0
 65 80  1  0  0  0  0
 80 81  1  0  0  0  0
 81 82  1  0  0  0  0
 82 83  2  0  0  0  0
 83 84  1  0  0  0  0
 84 85  1  0  0  0  0
 85 86  2  0  0  0  0
 86 87  1  0  0  0  0
 87 88  1  0  0  0  0
 88 89  1  0  0  0  0
 89 90  2  0  0  0  0
 90 91  1  0  0  0  0
 83 92  1  0  0  0  0
 92 93  2  0  0  0  0
 12  1  2  0  0  0  0
 26 15  2  0  0  0  0
 33 29  2  0  0  0  0
 50 46  2  0  0  0  0
 67 63  2  0  0  0  0
 91 80  2  0  0  0  0
 11  3  1  0  0  0  0
 25 17  1  0  0  0  0
 41 32  1  0  0  0  0
 58 49  1  0  0  0  0
 75 66  1  0  0  0  0
 90 82  1  0  0  0  0
  9  5  2  0  0  0  0
 23 19  2  0  0  0  0
 88 84  2  0  0  0  0
  1 94  1  0  0  0  0
  6 95  1  0  0  0  0
  7 96  1  0  0  0  0
 10 97  1  0  0  0  0
 12 98  1  0  0  0  0
 13 99  1  0  0  0  0
 14100  1  0  0  0  0
 20101  1  0  0  0  0
 21102  1  0  0  0  0
 24103  1  0  0  0  0
 26104  1  0  0  0  0
 27105  1  0  0  0  0
 28106  1  0  0  0  0
 34107  1  0  0  0  0
 39108  1  0  0  0  0
 39109  1  0  0  0  0
 40110  1  0  0  0  0
 40111  1  0  0  0  0
 41112  1  0  0  0  0
 51113  1  0  0  0  0
 56114  1  0  0  0  0
 56115  1  0  0  0  0
 57116  1  0  0  0  0
 57117  1  0  0  0  0
 58118  1  0  0  0  0
 68119  1  0  0  0  0
 73120  1  0  0  0  0
 73121  1  0  0  0  0
 74122  1  0  0  0  0
 74123  1  0  0  0  0
 75124  1  0  0  0  0
 85125  1  0  0  0  0
 86126  1  0  0  0  0
 89127  1  0  0  0  0
 91128  1  0  0  0  0
 92129  1  0  0  0  0
 93130  1  0  0  0  0
 93131  1  0  0  0  0
M  END
