112

C          5.64270       -2.45360        1.38020
C          4.59030       -1.82430        1.94460
C          4.63220       -0.48570        2.38920
C          5.85760        0.31230        2.22310
C          7.00690       -0.15050        1.68210
S          7.20020       -1.75000        1.10300
C          5.54020        1.59440        2.73970
C          4.22150        1.60570        3.19970
C          3.89270        2.82950        3.82340
C          4.92920        3.70650        3.78550
S          6.34820        3.08790        3.01330
C          3.64200        0.31140        2.95310
C          2.29040       -0.09820        3.22660
S          1.99730       -1.65800        3.93880
C          0.26430       -1.47280        3.81720
C         -0.05090       -0.24420        3.30540
C          1.09830        0.53070        2.97120
C          0.91320        1.79920        2.18810
C          0.51280        3.01630        3.03610
F          1.29480        4.07570        2.77450
F          0.60500        2.79490        4.35890
F         -0.74140        3.44330        2.82680
C         -0.13190        1.51370        1.09780
C         -1.46410        0.96960        1.64100
C         -1.35730        0.47080        3.09790
C         -2.65220       -0.22890        3.48280
F         -3.09190       -1.13010        2.59140
F         -2.59280       -0.85130        4.66820
F         -3.64230        0.67460        3.58980
C         -0.53070       -2.64690        4.12510
C         -1.33370       -3.22210        3.19060
C         -2.05760       -4.41150        3.37500
C         -1.98700       -5.12380        4.65870
C         -1.22490       -4.73780        5.70620
S         -0.23370       -3.34110        5.70700
C         -2.85910       -6.23570        4.52000
C         -3.44540       -6.21970        3.25400
C         -4.30770       -7.32230        3.05870
C         -4.35660       -8.11960        4.15780
S         -3.36430       -7.57780        5.46770
C         -2.93870       -5.08480        2.52400
C         -3.34180       -4.68550        1.20650
C         -2.54440       -3.97090        0.35340
C         -2.94920       -3.41470       -0.86630
C         -4.30820       -3.64290       -1.37400
C         -5.23370       -4.40080       -0.74570
S         -4.98550       -5.14210        0.77560
C         -4.38790       -2.91450       -2.58900
C         -3.18630       -2.24160       -2.81110
C         -3.21140       -1.51630       -4.02350
C         -4.40420       -1.64080       -4.66250
S         -5.54350       -2.64400       -3.83390
C         -2.27460       -2.55000       -1.73760
C         -0.96980       -1.96590       -1.60250
C         -0.69110       -0.70180       -2.04760
C          0.54410       -0.04670       -1.91390
C          1.68730       -0.68600       -1.23570
C          1.64940       -1.94060       -0.74130
S          0.26980       -2.95840       -0.82980
C          2.69780        0.31050       -1.18180
C          2.21640        1.49320       -1.74580
C          3.16510        2.53760       -1.70090
C          4.32480        2.12920       -1.12390
S          4.31570        0.47230       -0.62190
C          0.88620        1.26380       -2.22780
C          0.06500        2.25290       -2.87740
S         -0.23740        3.77720       -2.09030
C         -1.25540        4.29280       -3.37120
C         -1.35120        3.36070       -4.35530
C         -0.58230        2.19540       -4.08450
C         -0.39620        1.09840       -5.09760
C          0.99050        1.24690       -5.72540
F          1.99300        1.10050       -4.85290
F          1.19900        0.32970       -6.68750
F          1.16020        2.44520       -6.30570
C         -1.43610        1.13260       -6.23850
C         -2.65680        1.98010       -5.90180
C         -2.21000        3.41320       -5.58550
C         -3.42420        4.30780       -5.38640
F         -4.26920        4.23800       -6.42890
F         -4.13840        3.97930       -4.30050
F         -3.10430        5.60420       -5.25960
H          5.59390       -3.47750        1.05040
H          3.67070       -2.37950        2.06590
H          7.88510        0.46680        1.57830
H          2.96450        3.04690        4.31320
H          4.95470        4.70470        4.17570
H          1.86340        2.06740        1.71380
H         -0.30910        2.41620        0.51260
H          0.31570        0.77430        0.43630
H         -2.23350        1.74110        1.60060
H         -1.78950        0.14170        1.00760
H         -1.34260        1.33850        3.77110
H         -1.40940       -2.70890        2.24530
H         -1.19350       -5.29280        6.63060
H         -4.86100       -7.52590        2.16040
H         -4.92660       -9.01840        4.29000
H         -1.51680       -3.83930        0.65080
H         -6.21610       -4.57190       -1.15750
H         -2.39240       -0.94700       -4.41990
H         -4.69750       -1.19880       -5.59490
H         -1.51320       -0.13220       -2.45880
H          2.48880       -2.39360       -0.23790
H          3.00020        3.53200       -2.07290
H          5.21580        2.70190       -0.95550
H         -1.71940        5.25570       -3.30900
H         -0.38390        0.12600       -4.59470
H         -1.74850        0.11640       -6.48050
H         -0.97070        1.54970       -7.13450
H         -3.34010        1.97780       -6.75200
H         -3.18250        1.57050       -5.03580
H         -1.65060        3.82790       -6.43370
