
  xtb     02282221383D
 energy: -285.762621503935 gnorm: 0.000754922413 xtb: 6.4.1 (unknown)
137148  0     0  0            999 V2000
  -11.4544    5.1453    3.7729 C   0  0  0  0  0  0  0  0  0  0  0  0
  -12.6987    5.5478    3.4540 C   0  0  0  0  0  0  0  0  0  0  0  0
  -12.9884    5.0974    2.0925 C   0  0  0  0  0  0  0  0  0  0  0  0
  -14.1869    5.3354    1.4157 C   0  0  0  0  0  0  0  0  0  0  0  0
  -15.1755    5.5276    0.8621 N   0  0  0  0  0  0  0  0  0  0  0  0
  -11.9001    4.4179    1.6164 C   0  0  0  0  0  0  0  0  0  0  0  0
  -10.8979    4.4246    2.6405 C   0  0  0  0  0  0  0  0  0  0  0  0
   -9.6337    3.8701    2.5722 C   0  0  0  0  0  0  0  0  0  0  0  0
   -9.0620    3.1437    1.3689 C   0  0  0  0  0  0  0  0  0  0  0  0
   -7.7664    2.6050    1.8877 C   0  0  0  0  0  0  0  0  0  0  0  0
   -7.5010    3.1913    3.0992 C   0  0  0  0  0  0  0  0  0  0  0  0
   -8.6053    3.9813    3.5084 C   0  0  0  0  0  0  0  0  0  0  0  0
   -6.2855    3.0616    3.8003 C   0  0  0  0  0  0  0  0  0  0  0  0
   -5.2726    2.9864    4.3307 N   0  0  0  0  0  0  0  0  0  0  0  0
   -9.9399    2.1532    0.6663 C   0  0  0  0  0  0  0  0  0  0  0  0
   -9.7569    1.6828   -0.5709 C   0  0  0  0  0  0  0  0  0  0  0  0
   -8.6651    1.9199   -1.4829 C   0  0  0  0  0  0  0  0  0  0  0  0
   -8.3995    1.1230   -2.5619 C   0  0  0  0  0  0  0  0  0  0  0  0
   -7.1286    1.5084   -3.1276 C   0  0  0  0  0  0  0  0  0  0  0  0
   -6.5230    0.9107   -4.2384 C   0  0  0  0  0  0  0  0  0  0  0  0
   -5.9941    0.3962   -5.1188 N   0  0  0  0  0  0  0  0  0  0  0  0
   -6.5913    2.5116   -2.3604 C   0  0  0  0  0  0  0  0  0  0  0  0
   -7.5228    2.8161   -1.3142 C   0  0  0  0  0  0  0  0  0  0  0  0
   -7.4173    3.7699   -0.3333 C   0  0  0  0  0  0  0  0  0  0  0  0
   -6.2915    4.4110    0.2700 C   0  0  0  0  0  0  0  0  0  0  0  0
   -6.7706    5.5069    1.0402 C   0  0  0  0  0  0  0  0  0  0  0  0
   -8.1370    5.5000    1.0831 C   0  0  0  0  0  0  0  0  0  0  0  0
   -8.6475    4.2958    0.3615 C   0  0  0  0  0  0  0  0  0  0  0  0
   -8.9614    6.4529    1.6852 C   0  0  0  0  0  0  0  0  0  0  0  0
   -9.6486    7.2374    2.1673 N   0  0  0  0  0  0  0  0  0  0  0  0
   -4.9377    3.9994    0.2920 C   0  0  0  0  0  0  0  0  0  0  0  0
   -4.5090    2.7787   -0.1268 C   0  0  0  0  0  0  0  0  0  0  0  0
   -3.1911    2.2861   -0.0410 C   0  0  0  0  0  0  0  0  0  0  0  0
   -1.8918    3.2066    0.6621 S   0  0  0  0  0  0  0  0  0  0  0  0
   -0.7622    1.9282    0.3782 C   0  0  0  0  0  0  0  0  0  0  0  0
   -1.3618    0.8521   -0.2578 C   0  0  0  0  0  0  0  0  0  0  0  0
   -2.7315    1.0518   -0.4910 C   0  0  0  0  0  0  0  0  0  0  0  0
   -3.6002    0.0009   -1.1251 C   0  0  0  0  0  0  0  0  0  0  0  0
   -4.3545   -0.7464   -0.0155 C   0  0  0  0  0  0  0  0  0  0  0  0
   -5.3839   -0.0216    0.4637 F   0  0  0  0  0  0  0  0  0  0  0  0
   -3.5845   -1.0345    1.0421 F   0  0  0  0  0  0  0  0  0  0  0  0
   -4.8841   -1.8996   -0.4352 F   0  0  0  0  0  0  0  0  0  0  0  0
   -2.7648   -0.9630   -1.9748 C   0  0  0  0  0  0  0  0  0  0  0  0
   -1.5471   -1.4656   -1.2072 C   0  0  0  0  0  0  0  0  0  0  0  0
   -0.6078   -0.3125   -0.8448 C   0  0  0  0  0  0  0  0  0  0  0  0
    0.1531    0.2048   -2.0782 C   0  0  0  0  0  0  0  0  0  0  0  0
   -0.4623    1.2259   -2.6918 F   0  0  0  0  0  0  0  0  0  0  0  0
    0.3550   -0.7249   -3.0114 F   0  0  0  0  0  0  0  0  0  0  0  0
    1.3764    0.6637   -1.7363 F   0  0  0  0  0  0  0  0  0  0  0  0
    0.6139    2.1006    0.7506 C   0  0  0  0  0  0  0  0  0  0  0  0
    1.3782    3.1965    0.4944 C   0  0  0  0  0  0  0  0  0  0  0  0
    2.7403    2.9115    0.9012 C   0  0  0  0  0  0  0  0  0  0  0  0
    3.7999    3.8229    0.7963 C   0  0  0  0  0  0  0  0  0  0  0  0
    4.6643    4.5710    0.6980 N   0  0  0  0  0  0  0  0  0  0  0  0
    2.8070    1.6338    1.3850 C   0  0  0  0  0  0  0  0  0  0  0  0
    1.4785    1.0809    1.3679 C   0  0  0  0  0  0  0  0  0  0  0  0
    1.0599   -0.0527    2.0179 C   0  0  0  0  0  0  0  0  0  0  0  0
    1.9082   -1.1733    2.5001 C   0  0  0  0  0  0  0  0  0  0  0  0
    1.1597   -1.8927    3.3875 C   0  0  0  0  0  0  0  0  0  0  0  0
   -0.1635   -1.3181    3.4468 C   0  0  0  0  0  0  0  0  0  0  0  0
   -0.2418   -0.2579    2.5776 C   0  0  0  0  0  0  0  0  0  0  0  0
   -1.1907   -1.7954    4.2740 C   0  0  0  0  0  0  0  0  0  0  0  0
   -2.0155   -2.2042    4.9586 N   0  0  0  0  0  0  0  0  0  0  0  0
    3.1634   -1.5831    1.9732 C   0  0  0  0  0  0  0  0  0  0  0  0
    3.6546   -1.2260    0.7627 C   0  0  0  0  0  0  0  0  0  0  0  0
    4.8588   -1.7401    0.2109 C   0  0  0  0  0  0  0  0  0  0  0  0
    5.9174   -2.7696    1.1292 S   0  0  0  0  0  0  0  0  0  0  0  0
    6.9815   -2.9654   -0.2191 C   0  0  0  0  0  0  0  0  0  0  0  0
    6.5643   -2.2247   -1.3043 C   0  0  0  0  0  0  0  0  0  0  0  0
    5.3510   -1.5460   -1.0687 C   0  0  0  0  0  0  0  0  0  0  0  0
    4.6157   -0.8459   -2.1749 C   0  0  0  0  0  0  0  0  0  0  0  0
    3.5693   -1.8275   -2.7226 C   0  0  0  0  0  0  0  0  0  0  0  0
    4.0670   -3.0566   -2.9422 F   0  0  0  0  0  0  0  0  0  0  0  0
    2.5474   -1.9962   -1.8669 F   0  0  0  0  0  0  0  0  0  0  0  0
    3.0377   -1.4229   -3.8791 F   0  0  0  0  0  0  0  0  0  0  0  0
    5.5719   -0.3830   -3.2792 C   0  0  0  0  0  0  0  0  0  0  0  0
    6.5222   -1.4956   -3.7158 C   0  0  0  0  0  0  0  0  0  0  0  0
    7.3783   -2.0093   -2.5521 C   0  0  0  0  0  0  0  0  0  0  0  0
    8.5006   -1.0175   -2.2138 C   0  0  0  0  0  0  0  0  0  0  0  0
    9.4248   -1.5783   -1.4192 F   0  0  0  0  0  0  0  0  0  0  0  0
    9.1532   -0.5995   -3.3072 F   0  0  0  0  0  0  0  0  0  0  0  0
    8.0724    0.0796   -1.5784 F   0  0  0  0  0  0  0  0  0  0  0  0
    8.0868   -3.8920   -0.1491 C   0  0  0  0  0  0  0  0  0  0  0  0
    9.3542   -3.7195    1.0220 S   0  0  0  0  0  0  0  0  0  0  0  0
   10.1496   -5.1155    0.4308 C   0  0  0  0  0  0  0  0  0  0  0  0
    9.4752   -5.6994   -0.5958 C   0  0  0  0  0  0  0  0  0  0  0  0
    8.2835   -5.0043   -0.9296 C   0  0  0  0  0  0  0  0  0  0  0  0
    7.3011   -5.5675   -1.9187 C   0  0  0  0  0  0  0  0  0  0  0  0
    6.2943   -6.4153   -1.1347 C   0  0  0  0  0  0  0  0  0  0  0  0
    5.3574   -6.9455   -1.9326 F   0  0  0  0  0  0  0  0  0  0  0  0
    5.6419   -5.7011   -0.2074 F   0  0  0  0  0  0  0  0  0  0  0  0
    6.8706   -7.4407   -0.4913 F   0  0  0  0  0  0  0  0  0  0  0  0
    7.9569   -6.4480   -3.0084 C   0  0  0  0  0  0  0  0  0  0  0  0
    9.4748   -6.5524   -2.8794 C   0  0  0  0  0  0  0  0  0  0  0  0
    9.8706   -6.8803   -1.4326 C   0  0  0  0  0  0  0  0  0  0  0  0
   11.3616   -7.1683   -1.3472 C   0  0  0  0  0  0  0  0  0  0  0  0
   12.1136   -6.1082   -1.6750 F   0  0  0  0  0  0  0  0  0  0  0  0
   11.7472   -7.5491   -0.1209 F   0  0  0  0  0  0  0  0  0  0  0  0
   11.7213   -8.1600   -2.1767 F   0  0  0  0  0  0  0  0  0  0  0  0
  -10.9395    5.3152    4.6978 H   0  0  0  0  0  0  0  0  0  0  0  0
  -13.3882    6.1073    4.0569 H   0  0  0  0  0  0  0  0  0  0  0  0
  -11.8075    3.9712    0.6445 H   0  0  0  0  0  0  0  0  0  0  0  0
   -7.1732    1.8580    1.3955 H   0  0  0  0  0  0  0  0  0  0  0  0
   -8.6461    4.5424    4.4233 H   0  0  0  0  0  0  0  0  0  0  0  0
  -10.7697    1.7902    1.2544 H   0  0  0  0  0  0  0  0  0  0  0  0
  -10.4747    0.9600   -0.9379 H   0  0  0  0  0  0  0  0  0  0  0  0
   -9.0068    0.3192   -2.9344 H   0  0  0  0  0  0  0  0  0  0  0  0
   -5.6916    3.0603   -2.5692 H   0  0  0  0  0  0  0  0  0  0  0  0
   -6.1347    6.2198    1.5350 H   0  0  0  0  0  0  0  0  0  0  0  0
   -9.4933    4.5047   -0.2934 H   0  0  0  0  0  0  0  0  0  0  0  0
   -4.2365    4.6720    0.7697 H   0  0  0  0  0  0  0  0  0  0  0  0
   -5.2384    2.0977   -0.5360 H   0  0  0  0  0  0  0  0  0  0  0  0
   -4.3684    0.4581   -1.7577 H   0  0  0  0  0  0  0  0  0  0  0  0
   -3.3823   -1.8057   -2.2866 H   0  0  0  0  0  0  0  0  0  0  0  0
   -2.4491   -0.4348   -2.8758 H   0  0  0  0  0  0  0  0  0  0  0  0
   -1.8549   -1.9579   -0.2843 H   0  0  0  0  0  0  0  0  0  0  0  0
   -1.0082   -2.1989   -1.8075 H   0  0  0  0  0  0  0  0  0  0  0  0
    0.1591   -0.6792   -0.1570 H   0  0  0  0  0  0  0  0  0  0  0  0
    1.0588    4.1121    0.0333 H   0  0  0  0  0  0  0  0  0  0  0  0
    3.6671    1.1640    1.8203 H   0  0  0  0  0  0  0  0  0  0  0  0
    1.4613   -2.7749    3.9194 H   0  0  0  0  0  0  0  0  0  0  0  0
   -1.0881    0.3892    2.4566 H   0  0  0  0  0  0  0  0  0  0  0  0
    3.6945   -2.3294    2.5513 H   0  0  0  0  0  0  0  0  0  0  0  0
    3.0938   -0.5498    0.1342 H   0  0  0  0  0  0  0  0  0  0  0  0
    4.0514    0.0132   -1.7990 H   0  0  0  0  0  0  0  0  0  0  0  0
    6.1375    0.4681   -2.8998 H   0  0  0  0  0  0  0  0  0  0  0  0
    4.9950   -0.0417   -4.1398 H   0  0  0  0  0  0  0  0  0  0  0  0
    5.9555   -2.3329   -4.1238 H   0  0  0  0  0  0  0  0  0  0  0  0
    7.1735   -1.1239   -4.5081 H   0  0  0  0  0  0  0  0  0  0  0  0
    7.9007   -2.9244   -2.8485 H   0  0  0  0  0  0  0  0  0  0  0  0
   11.0731   -5.4184    0.8809 H   0  0  0  0  0  0  0  0  0  0  0  0
    6.6983   -4.7714   -2.3650 H   0  0  0  0  0  0  0  0  0  0  0  0
    7.7117   -6.0489   -3.9921 H   0  0  0  0  0  0  0  0  0  0  0  0
    7.5338   -7.4529   -2.9531 H   0  0  0  0  0  0  0  0  0  0  0  0
    9.9473   -5.6085   -3.1612 H   0  0  0  0  0  0  0  0  0  0  0  0
    9.8342   -7.3290   -3.5552 H   0  0  0  0  0  0  0  0  0  0  0  0
    9.3554   -7.7873   -1.0939 H   0  0  0  0  0  0  0  0  0  0  0  0
  1  2  2  0  0  0  0
  2  3  1  0  0  0  0
  3  4  1  0  0  0  0
  4  5  3  0  0  0  0
  3  6  2  0  0  0  0
  6  7  1  0  0  0  0
  7  8  2  0  0  0  0
  8  9  1  0  0  0  0
  9 10  2  0  0  0  0
 10 11  1  0  0  0  0
 11 12  2  0  0  0  0
 11 13  1  0  0  0  0
 13 14  3  0  0  0  0
  9 15  1  0  0  0  0
 15 16  2  0  0  0  0
 16 17  1  0  0  0  0
 17 18  2  0  0  0  0
 18 19  1  0  0  0  0
 19 20  1  0  0  0  0
 20 21  3  0  0  0  0
 19 22  2  0  0  0  0
 22 23  1  0  0  0  0
 23 24  2  0  0  0  0
 24 25  1  0  0  0  0
 25 26  2  0  0  0  0
 26 27  1  0  0  0  0
 27 28  2  0  0  0  0
 27 29  1  0  0  0  0
 29 30  3  0  0  0  0
 25 31  1  0  0  0  0
 31 32  2  0  0  0  0
 32 33  1  0  0  0  0
 33 34  1  0  0  0  0
 34 35  1  0  0  0  0
 35 36  2  0  0  0  0
 36 37  1  0  0  0  0
 37 38  1  0  0  0  0
 38 39  1  0  0  0  0
 39 40  1  0  0  0  0
 39 41  1  0  0  0  0
 39 42  1  0  0  0  0
 38 43  1  0  0  0  0
 43 44  1  0  0  0  0
 44 45  1  0  0  0  0
 45 46  1  0  0  0  0
 46 47  1  0  0  0  0
 46 48  1  0  0  0  0
 46 49  1  0  0  0  0
 35 50  1  0  0  0  0
 50 51  2  0  0  0  0
 51 52  1  0  0  0  0
 52 53  1  0  0  0  0
 53 54  3  0  0  0  0
 52 55  2  0  0  0  0
 55 56  1  0  0  0  0
 56 57  2  0  0  0  0
 57 58  1  0  0  0  0
 58 59  2  0  0  0  0
 59 60  1  0  0  0  0
 60 61  2  0  0  0  0
 60 62  1  0  0  0  0
 62 63  3  0  0  0  0
 58 64  1  0  0  0  0
 64 65  2  0  0  0  0
 65 66  1  0  0  0  0
 66 67  1  0  0  0  0
 67 68  1  0  0  0  0
 68 69  2  0  0  0  0
 69 70  1  0  0  0  0
 70 71  1  0  0  0  0
 71 72  1  0  0  0  0
 72 73  1  0  0  0  0
 72 74  1  0  0  0  0
 72 75  1  0  0  0  0
 71 76  1  0  0  0  0
 76 77  1  0  0  0  0
 77 78  1  0  0  0  0
 78 79  1  0  0  0  0
 79 80  1  0  0  0  0
 79 81  1  0  0  0  0
 79 82  1  0  0  0  0
 68 83  1  0  0  0  0
 83 84  1  0  0  0  0
 84 85  1  0  0  0  0
 85 86  2  0  0  0  0
 86 87  1  0  0  0  0
 87 88  1  0  0  0  0
 88 89  1  0  0  0  0
 89 90  1  0  0  0  0
 89 91  1  0  0  0  0
 89 92  1  0  0  0  0
 88 93  1  0  0  0  0
 93 94  1  0  0  0  0
 94 95  1  0  0  0  0
 95 96  1  0  0  0  0
 96 97  1  0  0  0  0
 96 98  1  0  0  0  0
 96 99  1  0  0  0  0
  7  1  1  0  0  0  0
 12  8  1  0  0  0  0
 23 17  1  0  0  0  0
 28 24  1  0  0  0  0
 37 33  2  0  0  0  0
 56 50  1  0  0  0  0
 61 57  1  0  0  0  0
 70 66  2  0  0  0  0
 87 83  2  0  0  0  0
 45 36  1  0  0  0  0
 78 69  1  0  0  0  0
 95 86  1  0  0  0  0
  1100  1  0  0  0  0
  2101  1  0  0  0  0
  6102  1  0  0  0  0
 10103  1  0  0  0  0
 12104  1  0  0  0  0
 15105  1  0  0  0  0
 16106  1  0  0  0  0
 18107  1  0  0  0  0
 22108  1  0  0  0  0
 26109  1  0  0  0  0
 28110  1  0  0  0  0
 31111  1  0  0  0  0
 32112  1  0  0  0  0
 38113  1  0  0  0  0
 43114  1  0  0  0  0
 43115  1  0  0  0  0
 44116  1  0  0  0  0
 44117  1  0  0  0  0
 45118  1  0  0  0  0
 51119  1  0  0  0  0
 55120  1  0  0  0  0
 59121  1  0  0  0  0
 61122  1  0  0  0  0
 64123  1  0  0  0  0
 65124  1  0  0  0  0
 71125  1  0  0  0  0
 76126  1  0  0  0  0
 76127  1  0  0  0  0
 77128  1  0  0  0  0
 77129  1  0  0  0  0
 78130  1  0  0  0  0
 85131  1  0  0  0  0
 88132  1  0  0  0  0
 93133  1  0  0  0  0
 93134  1  0  0  0  0
 94135  1  0  0  0  0
 94136  1  0  0  0  0
 95137  1  0  0  0  0
M  END
