108

C          3.45680        0.12830        3.97970
S          3.58640       -1.54810        3.62460
C          3.25520       -1.25770        1.97580
C          3.10040        0.06970        1.69390
C          2.85080        0.56310        0.32230
O          2.22420       -0.06220       -0.50260
O          3.38400        1.75410        0.10090
C          3.19980        0.87240        2.87020
S          2.98300        2.62680        2.97400
C          1.36240        2.86350        2.39430
C          0.55110        1.96040        1.83420
C         -0.79860        2.22470        1.42960
S         -1.73700        3.46710        2.18360
C         -3.18270        2.97790        1.32460
C         -2.91150        1.95790        0.45420
C         -1.55630        1.52630        0.52030
C         -0.97850        0.52870       -0.44480
C         -0.37360        1.33020       -1.59860
F          0.14880        0.54950       -2.55730
F          0.60990        2.15310       -1.21060
F         -1.28180        2.10300       -2.21870
C         -2.00940       -0.47290       -1.00530
C         -3.39840       -0.27270       -0.41390
C         -3.79980        1.20970       -0.50460
C         -5.30140        1.32080       -0.29620
F         -5.78320        2.56150       -0.45310
F         -5.95300        0.57170       -1.20560
F         -5.70380        0.88460        0.89970
C         -4.38980        3.73650        1.59150
S         -4.64730        5.22580        0.70430
C         -6.10610        5.52200        1.52580
C         -6.38720        4.55700        2.45050
C         -7.58270        4.51860        3.29310
O         -7.85090        3.61940        4.05100
O         -8.37110        5.59350        3.13940
C         -5.38530        3.53730        2.51070
S         -5.60400        2.18620        3.60930
C         -3.98530        1.50360        3.66640
C         -3.76850        0.19750        3.47400
C         -2.50520       -0.45460        3.62970
S         -1.09780        0.36510        4.25200
C         -0.15980       -1.05860        4.13710
C         -0.87300       -2.12970        3.67250
C         -0.32520       -3.49900        3.61820
O         -0.98130       -4.50650        3.62660
O          1.01610       -3.50080        3.58220
C         -2.21530       -1.77590        3.35800
S         -3.47110       -2.85550        2.74610
C         -2.82460       -3.61000        1.32530
C         -1.59580       -3.56460        0.80050
C         -1.24400       -4.29390       -0.38680
S         -2.41420       -4.63270       -1.63350
C         -1.25050       -5.46310       -2.56120
C         -0.01910       -5.50260       -1.96610
C          1.08890       -6.20550       -2.63430
O          0.96580       -6.79680       -3.67730
O          2.25480       -6.14370       -1.97990
C         -0.01610       -4.81550       -0.71600
S          1.31380       -4.79310        0.44680
C          2.54040       -3.85900       -0.36060
C          2.34440       -3.04410       -1.40220
C          3.37580       -2.23860       -1.98070
S          4.87540       -1.99330       -1.13330
C          5.39810       -0.84820       -2.29270
C          4.48700       -0.66940       -3.28920
C          3.33940       -1.49500       -3.13880
C          2.24040       -1.53280       -4.16960
C          1.81980       -2.96650       -4.53430
F          0.67390       -3.32700       -3.92710
F          1.58020       -3.11560       -5.84550
F          2.72900       -3.89930       -4.22170
C          2.67370       -0.79680       -5.44470
C          3.27530        0.55300       -5.09000
C          4.62470        0.34140       -4.39690
C          5.10530        1.67700       -3.84190
F          5.04840        2.65270       -4.76050
F          4.35750        2.09560       -2.80430
F          6.37300        1.65400       -3.40880
H          3.58140        0.48520        4.98240
H          3.21080       -2.06820        1.27710
H          3.20450        2.06910       -0.79980
H          1.05380        3.88890        2.53000
H          0.87970        0.94310        1.68190
H         -0.13290        0.00010        0.00550
H         -1.67800       -1.49050       -0.80250
H         -2.07270       -0.36020       -2.08960
H         -3.41480       -0.57580        0.63510
H         -4.10680       -0.89570       -0.96030
H         -3.62070        1.58000       -1.52290
H         -6.69710        6.38570        1.29530
H         -9.15040        5.50820        3.71100
H         -3.20220        2.17810        3.97640
H         -4.59140       -0.43710        3.17550
H          0.86280       -1.05750        4.45680
H          1.34050       -4.41450        3.54050
H         -3.59540       -4.20810        0.86060
H         -0.79110       -3.01550        1.26910
H         -1.50740       -5.89510       -3.50760
H          2.93780       -6.60760       -2.48830
H          3.51420       -4.00460        0.08280
H          1.35390       -2.93300       -1.81520
H          6.34870       -0.37240       -2.16190
H          1.34870       -1.04630       -3.75830
H          1.81020       -0.66030       -6.09570
H          3.41220       -1.39620       -5.98220
H          3.41200        1.15460       -5.98890
H          2.59970        1.08570       -4.41710
H          5.37830        0.01500       -5.12410
