
  xtb     02282221463D
 energy: -199.564667382954 gnorm: 0.000374568390 xtb: 6.4.1 (unknown)
100107  0     0  0            999 V2000
    6.1725   -3.1244    1.6363 C   0  0  0  0  0  0  0  0  0  0  0  0
    6.6758   -2.9199    0.0008 S   0  0  0  0  0  0  0  0  0  0  0  0
    5.0153   -2.9404   -0.5327 C   0  0  0  0  0  0  0  0  0  0  0  0
    4.1589   -3.1348    0.5134 C   0  0  0  0  0  0  0  0  0  0  0  0
    4.8270   -3.2346    1.7525 C   0  0  0  0  0  0  0  0  0  0  0  0
    4.6754   -2.8675   -1.8662 N   0  0  0  0  0  0  0  0  0  0  0  0
    5.3718   -2.2356   -2.8660 C   0  0  0  0  0  0  0  0  0  0  0  0
    6.1592   -1.1468   -2.7729 C   0  0  0  0  0  0  0  0  0  0  0  0
    6.3359   -0.2677   -1.6544 C   0  0  0  0  0  0  0  0  0  0  0  0
    5.0724    0.0143   -0.4955 S   0  0  0  0  0  0  0  0  0  0  0  0
    6.0240    1.1853    0.3705 C   0  0  0  0  0  0  0  0  0  0  0  0
    7.2439    1.3707   -0.2489 C   0  0  0  0  0  0  0  0  0  0  0  0
    7.4144    0.5499   -1.3881 C   0  0  0  0  0  0  0  0  0  0  0  0
    8.7013    0.4985   -2.1640 C   0  0  0  0  0  0  0  0  0  0  0  0
    9.4796   -0.7573   -1.7550 C   0  0  0  0  0  0  0  0  0  0  0  0
   10.7506   -0.7394   -2.1994 F   0  0  0  0  0  0  0  0  0  0  0  0
    9.5544   -0.9366   -0.4289 F   0  0  0  0  0  0  0  0  0  0  0  0
    8.9364   -1.8745   -2.2588 F   0  0  0  0  0  0  0  0  0  0  0  0
    9.5395    1.7634   -1.9565 C   0  0  0  0  0  0  0  0  0  0  0  0
    9.6314    2.1373   -0.4806 C   0  0  0  0  0  0  0  0  0  0  0  0
    8.2534    2.4208    0.1271 C   0  0  0  0  0  0  0  0  0  0  0  0
    7.7243    3.7869   -0.3210 C   0  0  0  0  0  0  0  0  0  0  0  0
    7.3396    3.8230   -1.6052 F   0  0  0  0  0  0  0  0  0  0  0  0
    6.6612    4.1825    0.3941 F   0  0  0  0  0  0  0  0  0  0  0  0
    8.6435    4.7595   -0.1787 F   0  0  0  0  0  0  0  0  0  0  0  0
    5.4570    1.7396    1.5596 C   0  0  0  0  0  0  0  0  0  0  0  0
    3.7155    1.6727    1.7410 S   0  0  0  0  0  0  0  0  0  0  0  0
    3.8079    2.4020    3.3140 C   0  0  0  0  0  0  0  0  0  0  0  0
    5.1072    2.6696    3.6640 C   0  0  0  0  0  0  0  0  0  0  0  0
    6.0285    2.2944    2.6754 C   0  0  0  0  0  0  0  0  0  0  0  0
    2.6887    2.6456    4.0551 N   0  0  0  0  0  0  0  0  0  0  0  0
    1.4104    2.3504    3.6680 C   0  0  0  0  0  0  0  0  0  0  0  0
    0.3245    2.5636    4.4333 C   0  0  0  0  0  0  0  0  0  0  0  0
   -1.0075    2.2515    4.0245 C   0  0  0  0  0  0  0  0  0  0  0  0
   -2.3284    2.4497    5.1550 S   0  0  0  0  0  0  0  0  0  0  0  0
   -3.4867    1.9054    3.9672 C   0  0  0  0  0  0  0  0  0  0  0  0
   -2.8693    1.5960    2.7855 C   0  0  0  0  0  0  0  0  0  0  0  0
   -1.4790    1.7858    2.8240 C   0  0  0  0  0  0  0  0  0  0  0  0
   -4.8194    1.8682    4.2970 N   0  0  0  0  0  0  0  0  0  0  0  0
   -5.7678    1.0215    3.7752 C   0  0  0  0  0  0  0  0  0  0  0  0
   -5.5303   -0.0800    3.0410 C   0  0  0  0  0  0  0  0  0  0  0  0
   -6.5400   -0.8940    2.4504 C   0  0  0  0  0  0  0  0  0  0  0  0
   -8.2434   -0.5089    2.5540 S   0  0  0  0  0  0  0  0  0  0  0  0
   -8.6535   -1.9037    1.5867 C   0  0  0  0  0  0  0  0  0  0  0  0
   -7.5394   -2.6089    1.2283 C   0  0  0  0  0  0  0  0  0  0  0  0
   -6.3530   -2.0337    1.7115 C   0  0  0  0  0  0  0  0  0  0  0  0
   -9.9722   -2.1550    1.2845 N   0  0  0  0  0  0  0  0  0  0  0  0
  -10.4526   -2.8218    0.1889 C   0  0  0  0  0  0  0  0  0  0  0  0
   -9.9022   -2.9660   -1.0339 C   0  0  0  0  0  0  0  0  0  0  0  0
   -8.7644   -2.3082   -1.6071 C   0  0  0  0  0  0  0  0  0  0  0  0
   -8.2632   -0.7148   -1.1166 S   0  0  0  0  0  0  0  0  0  0  0  0
   -7.0627   -0.6467   -2.3369 C   0  0  0  0  0  0  0  0  0  0  0  0
   -7.0386   -1.7791   -3.0899 C   0  0  0  0  0  0  0  0  0  0  0  0
   -8.0118   -2.7269   -2.6857 C   0  0  0  0  0  0  0  0  0  0  0  0
   -8.1327   -4.0764   -3.3378 C   0  0  0  0  0  0  0  0  0  0  0  0
   -7.4750   -5.1180   -2.4338 C   0  0  0  0  0  0  0  0  0  0  0  0
   -8.0433   -5.2106   -1.2244 F   0  0  0  0  0  0  0  0  0  0  0  0
   -7.5314   -6.3536   -2.9637 F   0  0  0  0  0  0  0  0  0  0  0  0
   -6.1749   -4.8601   -2.2218 F   0  0  0  0  0  0  0  0  0  0  0  0
   -7.4672   -4.1658   -4.7301 C   0  0  0  0  0  0  0  0  0  0  0  0
   -7.0811   -2.8070   -5.3019 C   0  0  0  0  0  0  0  0  0  0  0  0
   -6.1926   -2.0642   -4.2962 C   0  0  0  0  0  0  0  0  0  0  0  0
   -5.6348   -0.7953   -4.9189 C   0  0  0  0  0  0  0  0  0  0  0  0
   -6.5837    0.0999   -5.2263 F   0  0  0  0  0  0  0  0  0  0  0  0
   -4.7541   -0.1662   -4.1258 F   0  0  0  0  0  0  0  0  0  0  0  0
   -4.9772   -1.0532   -6.0637 F   0  0  0  0  0  0  0  0  0  0  0  0
    6.9163   -3.1469    2.4069 H   0  0  0  0  0  0  0  0  0  0  0  0
    3.0910   -3.1817    0.4004 H   0  0  0  0  0  0  0  0  0  0  0  0
    4.3185   -3.3685    2.6902 H   0  0  0  0  0  0  0  0  0  0  0  0
    3.9058   -3.4542   -2.1525 H   0  0  0  0  0  0  0  0  0  0  0  0
    5.2507   -2.6987   -3.8369 H   0  0  0  0  0  0  0  0  0  0  0  0
    6.7111   -0.8791   -3.6631 H   0  0  0  0  0  0  0  0  0  0  0  0
    8.4948    0.3712   -3.2326 H   0  0  0  0  0  0  0  0  0  0  0  0
    9.0786    2.5732   -2.5218 H   0  0  0  0  0  0  0  0  0  0  0  0
   10.5430    1.6095   -2.3564 H   0  0  0  0  0  0  0  0  0  0  0  0
   10.2673    3.0168   -0.3655 H   0  0  0  0  0  0  0  0  0  0  0  0
   10.0876    1.3219    0.0814 H   0  0  0  0  0  0  0  0  0  0  0  0
    8.3540    2.4935    1.2128 H   0  0  0  0  0  0  0  0  0  0  0  0
    5.3877    3.1178    4.6001 H   0  0  0  0  0  0  0  0  0  0  0  0
    7.0874    2.4101    2.8129 H   0  0  0  0  0  0  0  0  0  0  0  0
    2.8239    3.0666    4.9641 H   0  0  0  0  0  0  0  0  0  0  0  0
    1.3327    1.9190    2.6820 H   0  0  0  0  0  0  0  0  0  0  0  0
    0.4394    2.9854    5.4228 H   0  0  0  0  0  0  0  0  0  0  0  0
   -3.4007    1.2854    1.9053 H   0  0  0  0  0  0  0  0  0  0  0  0
   -0.8441    1.6017    1.9770 H   0  0  0  0  0  0  0  0  0  0  0  0
   -5.1006    2.4499    5.0714 H   0  0  0  0  0  0  0  0  0  0  0  0
   -6.7848    1.3117    4.0042 H   0  0  0  0  0  0  0  0  0  0  0  0
   -4.5173   -0.4091    2.8648 H   0  0  0  0  0  0  0  0  0  0  0  0
   -7.5791   -3.5124    0.6489 H   0  0  0  0  0  0  0  0  0  0  0  0
   -5.3789   -2.4488    1.5247 H   0  0  0  0  0  0  0  0  0  0  0  0
  -10.6486   -1.8675    1.9759 H   0  0  0  0  0  0  0  0  0  0  0  0
  -11.4090   -3.2969    0.3693 H   0  0  0  0  0  0  0  0  0  0  0  0
  -10.4138   -3.6469   -1.7010 H   0  0  0  0  0  0  0  0  0  0  0  0
   -6.4497    0.2274   -2.4134 H   0  0  0  0  0  0  0  0  0  0  0  0
   -9.1891   -4.3591   -3.3982 H   0  0  0  0  0  0  0  0  0  0  0  0
   -8.1419   -4.6714   -5.4207 H   0  0  0  0  0  0  0  0  0  0  0  0
   -6.5618   -4.7727   -4.6560 H   0  0  0  0  0  0  0  0  0  0  0  0
   -6.5510   -2.9532   -6.2440 H   0  0  0  0  0  0  0  0  0  0  0  0
   -7.9725   -2.2065   -5.4959 H   0  0  0  0  0  0  0  0  0  0  0  0
   -5.3287   -2.6856   -4.0278 H   0  0  0  0  0  0  0  0  0  0  0  0
  1  2  1  0  0  0  0
  2  3  1  0  0  0  0
  3  4  2  0  0  0  0
  4  5  1  0  0  0  0
  3  6  1  0  0  0  0
  6  7  1  0  0  0  0
  7  8  2  0  0  0  0
  8  9  1  0  0  0  0
  9 10  1  0  0  0  0
 10 11  1  0  0  0  0
 11 12  2  0  0  0  0
 12 13  1  0  0  0  0
 13 14  1  0  0  0  0
 14 15  1  0  0  0  0
 15 16  1  0  0  0  0
 15 17  1  0  0  0  0
 15 18  1  0  0  0  0
 14 19  1  0  0  0  0
 19 20  1  0  0  0  0
 20 21  1  0  0  0  0
 21 22  1  0  0  0  0
 22 23  1  0  0  0  0
 22 24  1  0  0  0  0
 22 25  1  0  0  0  0
 11 26  1  0  0  0  0
 26 27  1  0  0  0  0
 27 28  1  0  0  0  0
 28 29  2  0  0  0  0
 29 30  1  0  0  0  0
 28 31  1  0  0  0  0
 31 32  1  0  0  0  0
 32 33  2  0  0  0  0
 33 34  1  0  0  0  0
 34 35  1  0  0  0  0
 35 36  1  0  0  0  0
 36 37  2  0  0  0  0
 37 38  1  0  0  0  0
 36 39  1  0  0  0  0
 39 40  1  0  0  0  0
 40 41  2  0  0  0  0
 41 42  1  0  0  0  0
 42 43  1  0  0  0  0
 43 44  1  0  0  0  0
 44 45  2  0  0  0  0
 45 46  1  0  0  0  0
 44 47  1  0  0  0  0
 47 48  1  0  0  0  0
 48 49  2  0  0  0  0
 49 50  1  0  0  0  0
 50 51  1  0  0  0  0
 51 52  1  0  0  0  0
 52 53  2  0  0  0  0
 53 54  1  0  0  0  0
 54 55  1  0  0  0  0
 55 56  1  0  0  0  0
 56 57  1  0  0  0  0
 56 58  1  0  0  0  0
 56 59  1  0  0  0  0
 55 60  1  0  0  0  0
 60 61  1  0  0  0  0
 61 62  1  0  0  0  0
 62 63  1  0  0  0  0
 63 64  1  0  0  0  0
 63 65  1  0  0  0  0
 63 66  1  0  0  0  0
  5  1  2  0  0  0  0
 13  9  2  0  0  0  0
 30 26  2  0  0  0  0
 38 34  2  0  0  0  0
 46 42  2  0  0  0  0
 54 50  2  0  0  0  0
 21 12  1  0  0  0  0
 62 53  1  0  0  0  0
  1 67  1  0  0  0  0
  4 68  1  0  0  0  0
  5 69  1  0  0  0  0
  6 70  1  0  0  0  0
  7 71  1  0  0  0  0
  8 72  1  0  0  0  0
 14 73  1  0  0  0  0
 19 74  1  0  0  0  0
 19 75  1  0  0  0  0
 20 76  1  0  0  0  0
 20 77  1  0  0  0  0
 21 78  1  0  0  0  0
 29 79  1  0  0  0  0
 30 80  1  0  0  0  0
 31 81  1  0  0  0  0
 32 82  1  0  0  0  0
 33 83  1  0  0  0  0
 37 84  1  0  0  0  0
 38 85  1  0  0  0  0
 39 86  1  0  0  0  0
 40 87  1  0  0  0  0
 41 88  1  0  0  0  0
 45 89  1  0  0  0  0
 46 90  1  0  0  0  0
 47 91  1  0  0  0  0
 48 92  1  0  0  0  0
 49 93  1  0  0  0  0
 52 94  1  0  0  0  0
 55 95  1  0  0  0  0
 60 96  1  0  0  0  0
 60 97  1  0  0  0  0
 61 98  1  0  0  0  0
 61 99  1  0  0  0  0
 62100  1  0  0  0  0
M  END
