128

C          7.67700      -10.47910        8.10340
S          5.98750      -10.23710        8.00750
C          6.17660       -8.52230        8.21580
C          7.50510       -8.17650        8.31780
C          8.35980       -9.31430        8.27960
C          9.85200       -9.21450        8.45000
C         10.37860      -10.32890        9.34760
F          9.71430      -10.41390       10.50810
F         11.67090      -10.13890        9.66540
F         10.31860      -11.54150        8.77850
C         10.21190       -7.85920        9.06310
C          9.57430       -6.75850        8.23130
C          8.04560       -6.76740        8.38460
C          7.44520       -5.86830        7.28950
F          7.01780       -6.54360        6.21980
F          6.41410       -5.12610        7.72460
F          8.33520       -4.97000        6.82670
C          4.99740       -7.70240        8.26210
S          3.72980       -7.97840        7.07480
C          2.81420       -6.68430        7.74430
C          1.65200       -5.94110        7.52750
C          1.62180       -4.93820        8.51670
N          2.70740       -5.07130        9.34450
C          3.12810       -4.13110       10.34930
C          3.97870       -3.01480        9.74490
C          3.45900       -6.10980        8.85680
C          4.69490       -6.70040        9.15010
C          0.55120       -4.04670        8.37550
C         -0.22500       -4.35600        7.27860
S          0.33280       -5.79260        6.43030
C         -1.28900       -3.59540        6.71690
S         -1.90640       -4.05340        5.13460
C         -2.86520       -2.62470        5.08640
C         -3.66780       -1.88640        4.21850
C         -4.00990       -0.69580        4.89090
N         -3.44240       -0.69550        6.14120
C         -3.63210        0.29910        7.16250
C         -4.85400       -0.00830        8.02730
C         -2.73660       -1.86650        6.26760
C         -1.84480       -2.42510        7.19110
C         -4.70820        0.21470        4.08820
C         -4.88900       -0.27030        2.80920
S         -4.24750       -1.89560        2.59810
C         -5.36030        0.42150        1.65850
S         -5.34990       -0.42130        0.11370
C         -5.70840        1.05150       -0.70210
C         -5.78530        1.58950       -1.98580
C         -5.99540        2.97520       -1.83520
N         -6.09460        3.28290       -0.50030
C         -6.17870        4.60510        0.06040
C         -4.79560        5.22690        0.24990
C         -5.87730        2.12140        0.19960
C         -5.68740        1.75660        1.53790
C         -5.96390        3.67660       -3.04600
C         -5.72950        2.83550       -4.11400
S         -5.59230        1.14710       -3.63760
C         -5.47120        3.18170       -5.47030
S         -5.26570        1.89590       -6.65230
C         -4.82240        3.05340       -7.84890
C         -4.36720        3.14330       -9.16500
C         -4.13430        4.50890       -9.42040
N         -4.43150        5.24670       -8.30280
C         -4.41520        6.68230       -8.20580
C         -5.72320        7.29470       -8.70360
C         -4.86160        4.36810       -7.34210
C         -5.23990        4.43550       -5.99530
C         -3.61520        4.76390      -10.69630
C         -3.46010        3.60680      -11.42370
S         -3.96910        2.17230      -10.52810
C         -2.91760        3.38130      -12.73080
S         -3.41750        1.94680      -13.58220
C         -2.29250        2.23400      -14.83770
C         -1.56180        3.36500      -14.62840
C         -1.93760        4.04440      -13.43890
C         -1.28310        5.34270      -13.07170
C         -2.06380        6.50960      -13.69210
F         -1.33140        7.63500      -13.76500
F         -2.50390        6.26630      -14.93360
F         -3.15350        6.83870      -12.97990
C          0.16620        5.34320      -13.57270
C          0.22630        5.11490      -15.08110
C         -0.39460        3.77100      -15.49130
C          0.66430        2.66660      -15.41360
F          0.23830        1.50530      -15.93070
F          1.05820        2.40260      -14.15980
F          1.77670        2.98360      -16.09810
H          8.06800      -11.47290        8.02540
H         10.35560       -9.33350        7.48230
H          9.84360       -7.81590       10.09070
H         11.29490       -7.73430        9.08020
H          9.96190       -5.78550        8.53430
H          9.83270       -6.91060        7.18080
H          7.77480       -6.30880        9.34320
H          3.70120       -4.67390       11.10590
H          2.23550       -3.71410       10.82350
H          4.84490       -3.43740        9.24140
H          4.31590       -2.33510       10.52270
H          3.39850       -2.45490        9.01540
H          5.33890       -6.41620        9.96220
H          0.36420       -3.19990        9.00960
H         -2.73190        0.32980        7.78250
H         -3.75180        1.27130        6.67640
H         -4.97590        0.75580        8.79030
H         -5.75070       -0.03780        7.41290
H         -4.73650       -0.97420        8.51290
H         -1.59200       -1.99790        8.14390
H         -5.04170        1.18710        4.40080
H         -6.69440        4.53640        1.02230
H         -6.78000        5.22380       -0.61150
H         -4.88660        6.22310        0.67440
H         -4.19650        4.61270        0.91800
H         -4.28160        5.29710       -0.70590
H         -5.74030        2.42740        2.37550
H         -6.08330        4.73940       -3.14920
H         -3.57770        7.05800       -8.80040
H         -4.24660        6.95070       -7.15960
H         -5.68750        8.37680       -8.61350
H         -6.56030        6.92020       -8.11900
H         -5.88510        7.03530       -9.74700
H         -5.31350        5.33800       -5.41750
H         -3.41190        5.74660      -11.07040
H         -2.22150        1.54140      -15.65170
H         -1.30700        5.49280      -11.98750
H          0.64340        6.29420      -13.33210
H          0.70300        4.55140      -13.04910
H          1.26660        5.14790      -15.40900
H         -0.29710        5.91740      -15.59980
H         -0.69820        3.80770      -16.54340
