
  xtb     03042206513D
 energy: -415.139289896526 gnorm: 0.000759771261 xtb: 6.4.1 (unknown)
236257  0     0  0            999 V2000
    2.5089   -0.0374   10.2623 C   0  0  0  0  0  0  0  0  0  0  0  0
    2.0219    0.8875    9.4115 C   0  0  0  0  0  0  0  0  0  0  0  0
    1.0095    0.3688    8.5501 C   0  0  0  0  0  0  0  0  0  0  0  0
    0.3077    1.0357    7.5380 C   0  0  0  0  0  0  0  0  0  0  0  0
    0.6029    2.4174    7.1372 C   0  0  0  0  0  0  0  0  0  0  0  0
    1.8993    2.8020    6.7984 C   0  0  0  0  0  0  0  0  0  0  0  0
    2.1466    4.0652    6.3049 C   0  0  0  0  0  0  0  0  0  0  0  0
    1.1233    4.9986    6.1498 C   0  0  0  0  0  0  0  0  0  0  0  0
    1.5482    6.5832    5.4917 S   0  0  0  0  0  0  0  0  0  0  0  0
    0.1660    6.9566    4.3473 C   0  0  0  0  0  0  0  0  0  0  0  0
   -0.0378    5.8617    3.3210 C   0  0  0  0  0  0  0  0  0  0  0  0
   -0.1541    4.6199    6.5534 C   0  0  0  0  0  0  0  0  0  0  0  0
   -1.1832    5.4917    6.5000 F   0  0  0  0  0  0  0  0  0  0  0  0
   -0.4231    3.3491    7.0189 C   0  0  0  0  0  0  0  0  0  0  0  0
   -0.6608    0.3023    6.8687 C   0  0  0  0  0  0  0  0  0  0  0  0
   -0.9202   -1.0674    7.1183 C   0  0  0  0  0  0  0  0  0  0  0  0
   -0.1860   -1.7456    8.1051 C   0  0  0  0  0  0  0  0  0  0  0  0
   -0.3592   -3.1849    8.3324 C   0  0  0  0  0  0  0  0  0  0  0  0
   -0.3006   -4.0818    7.2653 C   0  0  0  0  0  0  0  0  0  0  0  0
   -0.4256   -5.4362    7.4790 C   0  0  0  0  0  0  0  0  0  0  0  0
   -0.6276   -5.9560    8.7580 C   0  0  0  0  0  0  0  0  0  0  0  0
   -0.8061   -7.7056    8.8874 S   0  0  0  0  0  0  0  0  0  0  0  0
   -0.1606   -8.1061   10.5602 C   0  0  0  0  0  0  0  0  0  0  0  0
    0.2697   -9.5595   10.5800 C   0  0  0  0  0  0  0  0  0  0  0  0
   -0.7109   -5.0470    9.8089 C   0  0  0  0  0  0  0  0  0  0  0  0
   -0.5632   -3.6887    9.6117 C   0  0  0  0  0  0  0  0  0  0  0  0
   -0.9542   -5.4650   11.0711 F   0  0  0  0  0  0  0  0  0  0  0  0
    0.7421   -0.9967    8.8169 C   0  0  0  0  0  0  0  0  0  0  0  0
    1.7783   -1.5970   10.0876 S   0  0  0  0  0  0  0  0  0  0  0  0
   -1.9421   -1.5763    6.2723 C   0  0  0  0  0  0  0  0  0  0  0  0
   -2.4241   -0.6557    5.3895 C   0  0  0  0  0  0  0  0  0  0  0  0
   -1.6525    0.9079    5.5736 S   0  0  0  0  0  0  0  0  0  0  0  0
   -3.3788   -0.8186    4.3384 C   0  0  0  0  0  0  0  0  0  0  0  0
   -3.9893   -1.9540    3.8899 C   0  0  0  0  0  0  0  0  0  0  0  0
   -4.7618   -1.7571    2.7143 C   0  0  0  0  0  0  0  0  0  0  0  0
   -5.3740   -2.7265    1.8985 C   0  0  0  0  0  0  0  0  0  0  0  0
   -5.2711   -4.1680    2.1575 C   0  0  0  0  0  0  0  0  0  0  0  0
   -4.0346   -4.7734    2.3632 C   0  0  0  0  0  0  0  0  0  0  0  0
   -3.9266   -6.1436    2.4984 C   0  0  0  0  0  0  0  0  0  0  0  0
   -5.0519   -6.9578    2.4346 C   0  0  0  0  0  0  0  0  0  0  0  0
   -5.0353   -8.7134    2.5803 S   0  0  0  0  0  0  0  0  0  0  0  0
   -3.3408   -9.1711    2.0717 C   0  0  0  0  0  0  0  0  0  0  0  0
   -3.0734   -8.8600    0.6115 C   0  0  0  0  0  0  0  0  0  0  0  0
   -6.2887   -6.3335    2.2623 C   0  0  0  0  0  0  0  0  0  0  0  0
   -7.4041   -7.0860    2.2241 F   0  0  0  0  0  0  0  0  0  0  0  0
   -6.4092   -4.9699    2.1143 C   0  0  0  0  0  0  0  0  0  0  0  0
   -5.9774   -2.2740    0.7340 C   0  0  0  0  0  0  0  0  0  0  0  0
   -5.9927   -0.9100    0.3582 C   0  0  0  0  0  0  0  0  0  0  0  0
   -5.3318    0.0512    1.1354 C   0  0  0  0  0  0  0  0  0  0  0  0
   -5.0536    1.3917    0.5945 C   0  0  0  0  0  0  0  0  0  0  0  0
   -4.3516    1.4901   -0.6090 C   0  0  0  0  0  0  0  0  0  0  0  0
   -4.0336    2.7192   -1.1413 C   0  0  0  0  0  0  0  0  0  0  0  0
   -4.4080    3.9042   -0.5070 C   0  0  0  0  0  0  0  0  0  0  0  0
   -3.9153    5.4022   -1.3045 S   0  0  0  0  0  0  0  0  0  0  0  0
   -5.2954    6.5649   -1.0040 C   0  0  0  0  0  0  0  0  0  0  0  0
   -6.5864    6.0873   -1.6383 C   0  0  0  0  0  0  0  0  0  0  0  0
   -5.0706    3.7889    0.7118 C   0  0  0  0  0  0  0  0  0  0  0  0
   -5.3940    2.5604    1.2600 C   0  0  0  0  0  0  0  0  0  0  0  0
   -5.4218    4.8856    1.4155 F   0  0  0  0  0  0  0  0  0  0  0  0
   -4.7545   -0.3972    2.3096 C   0  0  0  0  0  0  0  0  0  0  0  0
   -3.7840    0.5834    3.3672 S   0  0  0  0  0  0  0  0  0  0  0  0
   -6.5085   -0.7175   -0.9429 C   0  0  0  0  0  0  0  0  0  0  0  0
   -6.7496   -1.8824   -1.6145 C   0  0  0  0  0  0  0  0  0  0  0  0
   -6.5530   -3.2858   -0.5773 S   0  0  0  0  0  0  0  0  0  0  0  0
   -6.6509   -1.9495   -3.0418 C   0  0  0  0  0  0  0  0  0  0  0  0
   -5.9450   -2.8877   -3.7396 C   0  0  0  0  0  0  0  0  0  0  0  0
   -5.2540   -2.3466   -4.8592 C   0  0  0  0  0  0  0  0  0  0  0  0
   -4.1556   -2.9126   -5.5275 C   0  0  0  0  0  0  0  0  0  0  0  0
   -3.7604   -4.3170   -5.3296 C   0  0  0  0  0  0  0  0  0  0  0  0
   -3.6504   -5.1844   -6.4130 C   0  0  0  0  0  0  0  0  0  0  0  0
   -3.2805   -6.4988   -6.2224 C   0  0  0  0  0  0  0  0  0  0  0  0
   -3.0057   -7.0023   -4.9513 C   0  0  0  0  0  0  0  0  0  0  0  0
   -2.6221   -8.7242   -4.8402 S   0  0  0  0  0  0  0  0  0  0  0  0
   -1.3665   -8.8406   -3.5126 C   0  0  0  0  0  0  0  0  0  0  0  0
   -0.1394   -8.0048   -3.8154 C   0  0  0  0  0  0  0  0  0  0  0  0
   -3.1156   -6.1211   -3.8804 C   0  0  0  0  0  0  0  0  0  0  0  0
   -2.8794   -6.5267   -2.6105 F   0  0  0  0  0  0  0  0  0  0  0  0
   -3.4690   -4.7988   -4.0585 C   0  0  0  0  0  0  0  0  0  0  0  0
   -3.3392   -2.0378   -6.2301 C   0  0  0  0  0  0  0  0  0  0  0  0
   -3.6074   -0.6529   -6.3428 C   0  0  0  0  0  0  0  0  0  0  0  0
   -4.7838   -0.1133   -5.8034 C   0  0  0  0  0  0  0  0  0  0  0  0
   -5.0240    1.3399   -5.8164 C   0  0  0  0  0  0  0  0  0  0  0  0
   -5.0223    2.0558   -4.6202 C   0  0  0  0  0  0  0  0  0  0  0  0
   -5.2382    3.4147   -4.6136 C   0  0  0  0  0  0  0  0  0  0  0  0
   -5.4660    4.1191   -5.7965 C   0  0  0  0  0  0  0  0  0  0  0  0
   -5.7193    5.8566   -5.6331 S   0  0  0  0  0  0  0  0  0  0  0  0
   -6.7248    6.3261   -7.0961 C   0  0  0  0  0  0  0  0  0  0  0  0
   -7.4132    7.6454   -6.8066 C   0  0  0  0  0  0  0  0  0  0  0  0
   -5.4263    3.3969   -6.9857 C   0  0  0  0  0  0  0  0  0  0  0  0
   -5.2129    2.0311   -7.0048 C   0  0  0  0  0  0  0  0  0  0  0  0
   -5.5840    4.0104   -8.1813 F   0  0  0  0  0  0  0  0  0  0  0  0
   -5.5564   -0.9729   -5.0455 C   0  0  0  0  0  0  0  0  0  0  0  0
   -6.7930   -0.4379   -3.9351 S   0  0  0  0  0  0  0  0  0  0  0  0
   -2.4453    0.0880   -6.6857 C   0  0  0  0  0  0  0  0  0  0  0  0
   -1.3283   -0.6786   -6.7991 C   0  0  0  0  0  0  0  0  0  0  0  0
   -1.6931   -2.3995   -6.7040 S   0  0  0  0  0  0  0  0  0  0  0  0
    0.0098   -0.2124   -6.5394 C   0  0  0  0  0  0  0  0  0  0  0  0
    0.2600    0.6020   -5.4754 C   0  0  0  0  0  0  0  0  0  0  0  0
    1.6348    0.7277   -5.1623 C   0  0  0  0  0  0  0  0  0  0  0  0
    2.1972    1.3774   -4.0541 C   0  0  0  0  0  0  0  0  0  0  0  0
    1.3805    2.0029   -3.0035 C   0  0  0  0  0  0  0  0  0  0  0  0
    0.3660    1.2916   -2.3668 C   0  0  0  0  0  0  0  0  0  0  0  0
   -0.3506    1.8463   -1.3236 C   0  0  0  0  0  0  0  0  0  0  0  0
   -0.0791    3.1346   -0.8762 C   0  0  0  0  0  0  0  0  0  0  0  0
   -0.9222    3.9413    0.4451 S   0  0  0  0  0  0  0  0  0  0  0  0
   -1.4850    2.5678    1.5074 C   0  0  0  0  0  0  0  0  0  0  0  0
   -0.3283    1.8028    2.1184 C   0  0  0  0  0  0  0  0  0  0  0  0
    0.9217    3.8456   -1.5408 C   0  0  0  0  0  0  0  0  0  0  0  0
    1.2036    5.1020   -1.1498 F   0  0  0  0  0  0  0  0  0  0  0  0
    1.6490    3.3014   -2.5767 C   0  0  0  0  0  0  0  0  0  0  0  0
    3.5775    1.3149   -3.9427 C   0  0  0  0  0  0  0  0  0  0  0  0
    4.4050    0.6675   -4.8938 C   0  0  0  0  0  0  0  0  0  0  0  0
    3.8358    0.0205   -6.0068 C   0  0  0  0  0  0  0  0  0  0  0  0
    4.6841   -0.6373   -7.0066 C   0  0  0  0  0  0  0  0  0  0  0  0
    5.7615    0.0433   -7.5684 C   0  0  0  0  0  0  0  0  0  0  0  0
    6.5695   -0.5523   -8.5171 C   0  0  0  0  0  0  0  0  0  0  0  0
    6.3303   -1.8557   -8.9386 C   0  0  0  0  0  0  0  0  0  0  0  0
    7.2941   -2.7493  -10.1106 S   0  0  0  0  0  0  0  0  0  0  0  0
    8.3195   -1.4731  -10.9199 C   0  0  0  0  0  0  0  0  0  0  0  0
    7.5052   -0.5665  -11.8233 C   0  0  0  0  0  0  0  0  0  0  0  0
    5.2510   -2.5281   -8.3609 C   0  0  0  0  0  0  0  0  0  0  0  0
    4.4342   -1.9442   -7.4195 C   0  0  0  0  0  0  0  0  0  0  0  0
    5.0007   -3.7988   -8.7319 F   0  0  0  0  0  0  0  0  0  0  0  0
    2.4504    0.0296   -6.0878 C   0  0  0  0  0  0  0  0  0  0  0  0
    1.4758   -0.8059   -7.2781 S   0  0  0  0  0  0  0  0  0  0  0  0
    5.7648    0.6542   -4.4866 C   0  0  0  0  0  0  0  0  0  0  0  0
    5.9725    1.2483   -3.2788 C   0  0  0  0  0  0  0  0  0  0  0  0
    4.4956    1.8893   -2.5812 S   0  0  0  0  0  0  0  0  0  0  0  0
    7.1380    1.3264   -2.4518 C   0  0  0  0  0  0  0  0  0  0  0  0
    6.8870    1.4131   -1.1329 O   0  0  0  0  0  0  0  0  0  0  0  0
    8.0653    1.4352   -0.4628 C   0  0  0  0  0  0  0  0  0  0  0  0
    9.0983    1.3810   -1.3696 C   0  0  0  0  0  0  0  0  0  0  0  0
    8.5141    1.3080   -2.6584 C   0  0  0  0  0  0  0  0  0  0  0  0
    9.3119    1.2651   -3.8865 C   0  0  0  0  0  0  0  0  0  0  0  0
   10.5161    1.1975   -3.8988 O   0  0  0  0  0  0  0  0  0  0  0  0
    8.5603    1.3301   -4.9995 O   0  0  0  0  0  0  0  0  0  0  0  0
    9.2469    1.2981   -6.2424 C   0  0  0  0  0  0  0  0  0  0  0  0
    8.0638    1.4280    0.9660 C   0  0  0  0  0  0  0  0  0  0  0  0
    6.9198    1.3148    1.6710 C   0  0  0  0  0  0  0  0  0  0  0  0
    6.7412    1.1741    3.0802 C   0  0  0  0  0  0  0  0  0  0  0  0
    5.4924    0.7999    3.4371 O   0  0  0  0  0  0  0  0  0  0  0  0
    5.4508    0.6103    4.7757 C   0  0  0  0  0  0  0  0  0  0  0  0
    6.6865    0.8811    5.3080 C   0  0  0  0  0  0  0  0  0  0  0  0
    7.5288    1.2517    4.2314 C   0  0  0  0  0  0  0  0  0  0  0  0
    8.9187    1.6479    4.4787 C   0  0  0  0  0  0  0  0  0  0  0  0
    9.4617    1.5157    5.5487 O   0  0  0  0  0  0  0  0  0  0  0  0
    9.5297    2.2000    3.4180 O   0  0  0  0  0  0  0  0  0  0  0  0
   10.8661    2.6315    3.6332 C   0  0  0  0  0  0  0  0  0  0  0  0
    4.2129    0.1546    5.3513 C   0  0  0  0  0  0  0  0  0  0  0  0
    4.0400   -0.1699    6.6299 C   0  0  0  0  0  0  0  0  0  0  0  0
    3.2666    0.0888   11.0108 H   0  0  0  0  0  0  0  0  0  0  0  0
    2.3477    1.9113    9.3852 H   0  0  0  0  0  0  0  0  0  0  0  0
    2.7075    2.0904    6.8778 H   0  0  0  0  0  0  0  0  0  0  0  0
    3.1458    4.3500    6.0140 H   0  0  0  0  0  0  0  0  0  0  0  0
   -0.7333    7.1444    4.9300 H   0  0  0  0  0  0  0  0  0  0  0  0
    0.4833    7.8852    3.8733 H   0  0  0  0  0  0  0  0  0  0  0  0
   -0.8035    6.1623    2.6094 H   0  0  0  0  0  0  0  0  0  0  0  0
   -0.3584    4.9366    3.7974 H   0  0  0  0  0  0  0  0  0  0  0  0
    0.8819    5.6706    2.7727 H   0  0  0  0  0  0  0  0  0  0  0  0
   -1.4336    3.1092    7.3114 H   0  0  0  0  0  0  0  0  0  0  0  0
   -0.1196   -3.7114    6.2676 H   0  0  0  0  0  0  0  0  0  0  0  0
   -0.3632   -6.1284    6.6536 H   0  0  0  0  0  0  0  0  0  0  0  0
   -0.9486   -7.9184   11.2879 H   0  0  0  0  0  0  0  0  0  0  0  0
    0.6824   -7.4428   10.7474 H   0  0  0  0  0  0  0  0  0  0  0  0
   -0.5727  -10.2104   10.3569 H   0  0  0  0  0  0  0  0  0  0  0  0
    1.0485   -9.7383    9.8419 H   0  0  0  0  0  0  0  0  0  0  0  0
    0.6553   -9.8135   11.5650 H   0  0  0  0  0  0  0  0  0  0  0  0
   -0.6424   -3.0326   10.4642 H   0  0  0  0  0  0  0  0  0  0  0  0
   -2.3090   -2.5847    6.3315 H   0  0  0  0  0  0  0  0  0  0  0  0
   -3.8798   -2.9097    4.3690 H   0  0  0  0  0  0  0  0  0  0  0  0
   -3.1412   -4.1674    2.3837 H   0  0  0  0  0  0  0  0  0  0  0  0
   -2.9515   -6.5777    2.6506 H   0  0  0  0  0  0  0  0  0  0  0  0
   -3.3074  -10.2455    2.2523 H   0  0  0  0  0  0  0  0  0  0  0  0
   -2.6279   -8.6874    2.7383 H   0  0  0  0  0  0  0  0  0  0  0  0
   -3.7933   -9.3754   -0.0200 H   0  0  0  0  0  0  0  0  0  0  0  0
   -2.0724   -9.1925    0.3422 H   0  0  0  0  0  0  0  0  0  0  0  0
   -3.1491   -7.7923    0.4151 H   0  0  0  0  0  0  0  0  0  0  0  0
   -7.3887   -4.5412    1.9714 H   0  0  0  0  0  0  0  0  0  0  0  0
   -4.0462    0.5871   -1.1189 H   0  0  0  0  0  0  0  0  0  0  0  0
   -3.4768    2.7931   -2.0630 H   0  0  0  0  0  0  0  0  0  0  0  0
   -5.3972    6.7267    0.0663 H   0  0  0  0  0  0  0  0  0  0  0  0
   -4.9483    7.4862   -1.4715 H   0  0  0  0  0  0  0  0  0  0  0  0
   -6.4602    5.9655   -2.7123 H   0  0  0  0  0  0  0  0  0  0  0  0
   -6.9010    5.1363   -1.2114 H   0  0  0  0  0  0  0  0  0  0  0  0
   -7.3719    6.8189   -1.4611 H   0  0  0  0  0  0  0  0  0  0  0  0
   -5.9137    2.5332    2.2050 H   0  0  0  0  0  0  0  0  0  0  0  0
   -6.5862    0.2503   -1.4041 H   0  0  0  0  0  0  0  0  0  0  0  0
   -5.7970   -3.8876   -3.3743 H   0  0  0  0  0  0  0  0  0  0  0  0
   -3.8625   -4.8243   -7.4080 H   0  0  0  0  0  0  0  0  0  0  0  0
   -3.2004   -7.1698   -7.0631 H   0  0  0  0  0  0  0  0  0  0  0  0
   -1.1237   -9.9033   -3.4976 H   0  0  0  0  0  0  0  0  0  0  0  0
   -1.8249   -8.5686   -2.5644 H   0  0  0  0  0  0  0  0  0  0  0  0
    0.6166   -8.1731   -3.0509 H   0  0  0  0  0  0  0  0  0  0  0  0
   -0.3841   -6.9444   -3.8284 H   0  0  0  0  0  0  0  0  0  0  0  0
    0.2767   -8.2745   -4.7836 H   0  0  0  0  0  0  0  0  0  0  0  0
   -3.5040   -4.1535   -3.1941 H   0  0  0  0  0  0  0  0  0  0  0  0
   -4.8420    1.5411   -3.6899 H   0  0  0  0  0  0  0  0  0  0  0  0
   -5.2288    3.9633   -3.6851 H   0  0  0  0  0  0  0  0  0  0  0  0
   -6.0635    6.4081   -7.9573 H   0  0  0  0  0  0  0  0  0  0  0  0
   -7.4502    5.5307   -7.2598 H   0  0  0  0  0  0  0  0  0  0  0  0
   -8.0123    7.9416   -7.6648 H   0  0  0  0  0  0  0  0  0  0  0  0
   -6.6793    8.4235   -6.6086 H   0  0  0  0  0  0  0  0  0  0  0  0
   -8.0635    7.5559   -5.9392 H   0  0  0  0  0  0  0  0  0  0  0  0
   -5.1978    1.5200   -7.9552 H   0  0  0  0  0  0  0  0  0  0  0  0
   -2.4291    1.1622   -6.7315 H   0  0  0  0  0  0  0  0  0  0  0  0
   -0.5216    1.0586   -4.8960 H   0  0  0  0  0  0  0  0  0  0  0  0
    0.1542    0.2779   -2.6734 H   0  0  0  0  0  0  0  0  0  0  0  0
   -1.1277    1.2662   -0.8512 H   0  0  0  0  0  0  0  0  0  0  0  0
   -2.0713    3.0655    2.2793 H   0  0  0  0  0  0  0  0  0  0  0  0
   -2.1518    1.9247    0.9349 H   0  0  0  0  0  0  0  0  0  0  0  0
    0.3076    2.4726    2.6924 H   0  0  0  0  0  0  0  0  0  0  0  0
    0.2755    1.3288    1.3469 H   0  0  0  0  0  0  0  0  0  0  0  0
   -0.7122    1.0341    2.7858 H   0  0  0  0  0  0  0  0  0  0  0  0
    2.4162    3.8954   -3.0476 H   0  0  0  0  0  0  0  0  0  0  0  0
    5.9580    1.0620   -7.2702 H   0  0  0  0  0  0  0  0  0  0  0  0
    7.3942    0.0099   -8.9244 H   0  0  0  0  0  0  0  0  0  0  0  0
    8.8644   -0.9218  -10.1544 H   0  0  0  0  0  0  0  0  0  0  0  0
    9.0350   -2.0556  -11.5003 H   0  0  0  0  0  0  0  0  0  0  0  0
    8.1598    0.1509  -12.3146 H   0  0  0  0  0  0  0  0  0  0  0  0
    6.7528   -0.0212  -11.2576 H   0  0  0  0  0  0  0  0  0  0  0  0
    6.9997   -1.1547  -12.5854 H   0  0  0  0  0  0  0  0  0  0  0  0
    3.6243   -2.5201   -7.0010 H   0  0  0  0  0  0  0  0  0  0  0  0
    6.5437    0.1704   -5.0424 H   0  0  0  0  0  0  0  0  0  0  0  0
   10.1488    1.3861   -1.1661 H   0  0  0  0  0  0  0  0  0  0  0  0
   10.2714    1.6530   -6.1151 H   0  0  0  0  0  0  0  0  0  0  0  0
    8.6982    1.9436   -6.9257 H   0  0  0  0  0  0  0  0  0  0  0  0
    9.2635    0.2741   -6.6228 H   0  0  0  0  0  0  0  0  0  0  0  0
    9.0256    1.4750    1.4455 H   0  0  0  0  0  0  0  0  0  0  0  0
    5.9859    1.2506    1.1256 H   0  0  0  0  0  0  0  0  0  0  0  0
    6.9867    0.8365    6.3339 H   0  0  0  0  0  0  0  0  0  0  0  0
   11.5107    1.7770    3.8500 H   0  0  0  0  0  0  0  0  0  0  0  0
   11.1776    3.1237    2.7153 H   0  0  0  0  0  0  0  0  0  0  0  0
   10.9098    3.3246    4.4751 H   0  0  0  0  0  0  0  0  0  0  0  0
    3.3969    0.0713    4.6458 H   0  0  0  0  0  0  0  0  0  0  0  0
    3.0911   -0.5262    6.9900 H   0  0  0  0  0  0  0  0  0  0  0  0
    4.8365   -0.0982    7.3497 H   0  0  0  0  0  0  0  0  0  0  0  0
  1  2  2  0  0  0  0
  2  3  1  0  0  0  0
  3  4  2  0  0  0  0
  4  5  1  0  0  0  0
  5  6  2  0  0  0  0
  6  7  1  0  0  0  0
  7  8  2  0  0  0  0
  8  9  1  0  0  0  0
  9 10  1  0  0  0  0
 10 11  1  0  0  0  0
  8 12  1  0  0  0  0
 12 13  1  0  0  0  0
 12 14  2  0  0  0  0
  4 15  1  0  0  0  0
 15 16  2  0  0  0  0
 16 17  1  0  0  0  0
 17 18  1  0  0  0  0
 18 19  2  0  0  0  0
 19 20  1  0  0  0  0
 20 21  2  0  0  0  0
 21 22  1  0  0  0  0
 22 23  1  0  0  0  0
 23 24  1  0  0  0  0
 21 25  1  0  0  0  0
 25 26  2  0  0  0  0
 25 27  1  0  0  0  0
 17 28  2  0  0  0  0
 28 29  1  0  0  0  0
 16 30  1  0  0  0  0
 30 31  2  0  0  0  0
 31 32  1  0  0  0  0
 31 33  1  0  0  0  0
 33 34  2  0  0  0  0
 34 35  1  0  0  0  0
 35 36  2  0  0  0  0
 36 37  1  0  0  0  0
 37 38  2  0  0  0  0
 38 39  1  0  0  0  0
 39 40  2  0  0  0  0
 40 41  1  0  0  0  0
 41 42  1  0  0  0  0
 42 43  1  0  0  0  0
 40 44  1  0  0  0  0
 44 45  1  0  0  0  0
 44 46  2  0  0  0  0
 36 47  1  0  0  0  0
 47 48  2  0  0  0  0
 48 49  1  0  0  0  0
 49 50  1  0  0  0  0
 50 51  2  0  0  0  0
 51 52  1  0  0  0  0
 52 53  2  0  0  0  0
 53 54  1  0  0  0  0
 54 55  1  0  0  0  0
 55 56  1  0  0  0  0
 53 57  1  0  0  0  0
 57 58  2  0  0  0  0
 57 59  1  0  0  0  0
 49 60  2  0  0  0  0
 60 61  1  0  0  0  0
 48 62  1  0  0  0  0
 62 63  2  0  0  0  0
 63 64  1  0  0  0  0
 63 65  1  0  0  0  0
 65 66  2  0  0  0  0
 66 67  1  0  0  0  0
 67 68  2  0  0  0  0
 68 69  1  0  0  0  0
 69 70  2  0  0  0  0
 70 71  1  0  0  0  0
 71 72  2  0  0  0  0
 72 73  1  0  0  0  0
 73 74  1  0  0  0  0
 74 75  1  0  0  0  0
 72 76  1  0  0  0  0
 76 77  1  0  0  0  0
 76 78  2  0  0  0  0
 68 79  1  0  0  0  0
 79 80  2  0  0  0  0
 80 81  1  0  0  0  0
 81 82  1  0  0  0  0
 82 83  2  0  0  0  0
 83 84  1  0  0  0  0
 84 85  2  0  0  0  0
 85 86  1  0  0  0  0
 86 87  1  0  0  0  0
 87 88  1  0  0  0  0
 85 89  1  0  0  0  0
 89 90  2  0  0  0  0
 89 91  1  0  0  0  0
 81 92  2  0  0  0  0
 92 93  1  0  0  0  0
 80 94  1  0  0  0  0
 94 95  2  0  0  0  0
 95 96  1  0  0  0  0
 95 97  1  0  0  0  0
 97 98  2  0  0  0  0
 98 99  1  0  0  0  0
 99100  2  0  0  0  0
100101  1  0  0  0  0
101102  2  0  0  0  0
102103  1  0  0  0  0
103104  2  0  0  0  0
104105  1  0  0  0  0
105106  1  0  0  0  0
106107  1  0  0  0  0
104108  1  0  0  0  0
108109  1  0  0  0  0
108110  2  0  0  0  0
100111  1  0  0  0  0
111112  2  0  0  0  0
112113  1  0  0  0  0
113114  1  0  0  0  0
114115  2  0  0  0  0
115116  1  0  0  0  0
116117  2  0  0  0  0
117118  1  0  0  0  0
118119  1  0  0  0  0
119120  1  0  0  0  0
117121  1  0  0  0  0
121122  2  0  0  0  0
121123  1  0  0  0  0
113124  2  0  0  0  0
124125  1  0  0  0  0
112126  1  0  0  0  0
126127  2  0  0  0  0
127128  1  0  0  0  0
127129  1  0  0  0  0
129130  1  0  0  0  0
130131  1  0  0  0  0
131132  2  0  0  0  0
132133  1  0  0  0  0
133134  1  0  0  0  0
134135  2  0  0  0  0
134136  1  0  0  0  0
136137  1  0  0  0  0
131138  1  0  0  0  0
138139  2  0  0  0  0
139140  1  0  0  0  0
140141  1  0  0  0  0
141142  1  0  0  0  0
142143  2  0  0  0  0
143144  1  0  0  0  0
144145  1  0  0  0  0
145146  2  0  0  0  0
145147  1  0  0  0  0
147148  1  0  0  0  0
142149  1  0  0  0  0
149150  2  0  0  0  0
 29  1  1  0  0  0  0
 61 33  1  0  0  0  0
 93 65  1  0  0  0  0
125 97  1  0  0  0  0
133129  2  0  0  0  0
144140  2  0  0  0  0
 28  3  1  0  0  0  0
 60 35  1  0  0  0  0
 92 67  1  0  0  0  0
124 99  1  0  0  0  0
 14  5  1  0  0  0  0
 32 15  1  0  0  0  0
 46 37  1  0  0  0  0
 64 47  1  0  0  0  0
 78 69  1  0  0  0  0
 96 79  1  0  0  0  0
110101  1  0  0  0  0
128111  1  0  0  0  0
 26 18  1  0  0  0  0
 58 50  1  0  0  0  0
 90 82  1  0  0  0  0
122114  1  0  0  0  0
  1151  1  0  0  0  0
  2152  1  0  0  0  0
  6153  1  0  0  0  0
  7154  1  0  0  0  0
 10155  1  0  0  0  0
 10156  1  0  0  0  0
 11157  1  0  0  0  0
 11158  1  0  0  0  0
 11159  1  0  0  0  0
 14160  1  0  0  0  0
 19161  1  0  0  0  0
 20162  1  0  0  0  0
 23163  1  0  0  0  0
 23164  1  0  0  0  0
 24165  1  0  0  0  0
 24166  1  0  0  0  0
 24167  1  0  0  0  0
 26168  1  0  0  0  0
 30169  1  0  0  0  0
 34170  1  0  0  0  0
 38171  1  0  0  0  0
 39172  1  0  0  0  0
 42173  1  0  0  0  0
 42174  1  0  0  0  0
 43175  1  0  0  0  0
 43176  1  0  0  0  0
 43177  1  0  0  0  0
 46178  1  0  0  0  0
 51179  1  0  0  0  0
 52180  1  0  0  0  0
 55181  1  0  0  0  0
 55182  1  0  0  0  0
 56183  1  0  0  0  0
 56184  1  0  0  0  0
 56185  1  0  0  0  0
 58186  1  0  0  0  0
 62187  1  0  0  0  0
 66188  1  0  0  0  0
 70189  1  0  0  0  0
 71190  1  0  0  0  0
 74191  1  0  0  0  0
 74192  1  0  0  0  0
 75193  1  0  0  0  0
 75194  1  0  0  0  0
 75195  1  0  0  0  0
 78196  1  0  0  0  0
 83197  1  0  0  0  0
 84198  1  0  0  0  0
 87199  1  0  0  0  0
 87200  1  0  0  0  0
 88201  1  0  0  0  0
 88202  1  0  0  0  0
 88203  1  0  0  0  0
 90204  1  0  0  0  0
 94205  1  0  0  0  0
 98206  1  0  0  0  0
102207  1  0  0  0  0
103208  1  0  0  0  0
106209  1  0  0  0  0
106210  1  0  0  0  0
107211  1  0  0  0  0
107212  1  0  0  0  0
107213  1  0  0  0  0
110214  1  0  0  0  0
115215  1  0  0  0  0
116216  1  0  0  0  0
119217  1  0  0  0  0
119218  1  0  0  0  0
120219  1  0  0  0  0
120220  1  0  0  0  0
120221  1  0  0  0  0
122222  1  0  0  0  0
126223  1  0  0  0  0
132224  1  0  0  0  0
137225  1  0  0  0  0
137226  1  0  0  0  0
137227  1  0  0  0  0
138228  1  0  0  0  0
139229  1  0  0  0  0
143230  1  0  0  0  0
148231  1  0  0  0  0
148232  1  0  0  0  0
148233  1  0  0  0  0
149234  1  0  0  0  0
150235  1  0  0  0  0
150236  1  0  0  0  0
M  END
