
  xtb     03022213453D
 energy: -415.228942838471 gnorm: 0.000321105790 xtb: 6.4.1 (unknown)
218241  0     0  0            999 V2000
    0.4218   -6.3831   12.5806 C   0  0  0  0  0  0  0  0  0  0  0  0
    0.0215   -6.8143   10.9851 S   0  0  0  0  0  0  0  0  0  0  0  0
    0.6672   -5.3338   10.3287 C   0  0  0  0  0  0  0  0  0  0  0  0
    1.2117   -4.5519   11.3544 C   0  0  0  0  0  0  0  0  0  0  0  0
    1.0539   -5.1603   12.6435 C   0  0  0  0  0  0  0  0  0  0  0  0
    1.5398   -4.5026   13.7991 C   0  0  0  0  0  0  0  0  0  0  0  0
    2.1777   -3.3061   13.6965 C   0  0  0  0  0  0  0  0  0  0  0  0
    2.7079   -2.5767   14.8886 C   0  0  0  0  0  0  0  0  0  0  0  0
    2.3737   -2.7211   12.4019 C   0  0  0  0  0  0  0  0  0  0  0  0
    3.0538   -1.5428   12.4225 O   0  0  0  0  0  0  0  0  0  0  0  0
    3.2987   -0.8808   11.2067 C   0  0  0  0  0  0  0  0  0  0  0  0
    1.9075   -3.3279   11.2654 C   0  0  0  0  0  0  0  0  0  0  0  0
    0.5359   -5.1470    8.9288 C   0  0  0  0  0  0  0  0  0  0  0  0
    0.6689   -3.9928    8.2335 C   0  0  0  0  0  0  0  0  0  0  0  0
    0.5239   -3.8898    6.8209 C   0  0  0  0  0  0  0  0  0  0  0  0
    0.3269   -4.8625    5.8798 C   0  0  0  0  0  0  0  0  0  0  0  0
    0.2172   -4.3661    4.5607 C   0  0  0  0  0  0  0  0  0  0  0  0
   -0.0237   -5.0944    3.3806 C   0  0  0  0  0  0  0  0  0  0  0  0
   -0.2856   -6.5221    3.4146 C   0  0  0  0  0  0  0  0  0  0  0  0
    0.6168   -7.6313    2.4238 S   0  0  0  0  0  0  0  0  0  0  0  0
   -0.2619   -8.9994    3.0160 C   0  0  0  0  0  0  0  0  0  0  0  0
   -0.0041  -10.3659    2.4848 C   0  0  0  0  0  0  0  0  0  0  0  0
   -0.7187  -10.5699    1.1466 C   0  0  0  0  0  0  0  0  0  0  0  0
   -1.2005   -8.6032    3.9207 C   0  0  0  0  0  0  0  0  0  0  0  0
   -2.2758   -9.6774    4.7185 Cl  0  0  0  0  0  0  0  0  0  0  0  0
   -1.2132   -7.2015    4.1544 C   0  0  0  0  0  0  0  0  0  0  0  0
   -2.3463   -6.4514    5.2043 Cl  0  0  0  0  0  0  0  0  0  0  0  0
    0.0086   -4.3870    2.1875 C   0  0  0  0  0  0  0  0  0  0  0  0
    0.2313   -2.9908    2.1284 C   0  0  0  0  0  0  0  0  0  0  0  0
    0.3598   -2.2419    3.3130 C   0  0  0  0  0  0  0  0  0  0  0  0
    0.4243   -0.7909    3.2890 C   0  0  0  0  0  0  0  0  0  0  0  0
    1.5992    0.0922    4.2211 S   0  0  0  0  0  0  0  0  0  0  0  0
    0.9703    1.6363    3.7283 C   0  0  0  0  0  0  0  0  0  0  0  0
    1.6397    2.8430    4.3016 C   0  0  0  0  0  0  0  0  0  0  0  0
    1.1773    4.1861    3.7542 C   0  0  0  0  0  0  0  0  0  0  0  0
   -0.0881    1.4572    2.8908 C   0  0  0  0  0  0  0  0  0  0  0  0
   -0.3965    0.0875    2.6391 C   0  0  0  0  0  0  0  0  0  0  0  0
   -1.7373   -0.3666    1.6695 Cl  0  0  0  0  0  0  0  0  0  0  0  0
   -1.0397    2.6892    2.1643 Cl  0  0  0  0  0  0  0  0  0  0  0  0
    0.3848   -2.9590    4.5017 C   0  0  0  0  0  0  0  0  0  0  0  0
    0.6053   -2.2928    6.0912 S   0  0  0  0  0  0  0  0  0  0  0  0
    0.2985   -2.5304    0.7934 C   0  0  0  0  0  0  0  0  0  0  0  0
    0.0623   -3.4998   -0.1339 C   0  0  0  0  0  0  0  0  0  0  0  0
   -0.2269   -5.0619    0.5966 S   0  0  0  0  0  0  0  0  0  0  0  0
   -0.0280   -3.2813   -1.5421 C   0  0  0  0  0  0  0  0  0  0  0  0
   -0.8076   -3.9109   -2.4652 C   0  0  0  0  0  0  0  0  0  0  0  0
   -0.8416   -3.2386   -3.7142 C   0  0  0  0  0  0  0  0  0  0  0  0
   -1.7456   -3.4474   -4.7742 C   0  0  0  0  0  0  0  0  0  0  0  0
   -2.5910   -4.6302   -4.7893 C   0  0  0  0  0  0  0  0  0  0  0  0
   -1.8438   -6.2011   -4.7013 S   0  0  0  0  0  0  0  0  0  0  0  0
   -3.3670   -7.0207   -4.7818 C   0  0  0  0  0  0  0  0  0  0  0  0
   -3.4425   -8.5065   -4.7198 C   0  0  0  0  0  0  0  0  0  0  0  0
   -3.0580   -9.0236   -3.3324 C   0  0  0  0  0  0  0  0  0  0  0  0
   -4.3819   -6.1163   -4.8605 C   0  0  0  0  0  0  0  0  0  0  0  0
   -6.0424   -6.5425   -4.9470 Cl  0  0  0  0  0  0  0  0  0  0  0  0
   -3.9487   -4.7608   -4.8684 C   0  0  0  0  0  0  0  0  0  0  0  0
   -5.0603   -3.4592   -4.8846 Cl  0  0  0  0  0  0  0  0  0  0  0  0
   -1.8125   -2.4533   -5.7382 C   0  0  0  0  0  0  0  0  0  0  0  0
   -0.9362   -1.3331   -5.7676 C   0  0  0  0  0  0  0  0  0  0  0  0
    0.0309   -1.1715   -4.7606 C   0  0  0  0  0  0  0  0  0  0  0  0
    0.9549   -0.0516   -4.6726 C   0  0  0  0  0  0  0  0  0  0  0  0
    2.6155   -0.3803   -4.2491 S   0  0  0  0  0  0  0  0  0  0  0  0
    3.0359    1.2924   -4.2020 C   0  0  0  0  0  0  0  0  0  0  0  0
    4.4005    1.7620   -3.8323 C   0  0  0  0  0  0  0  0  0  0  0  0
    4.4309    2.2965   -2.3981 C   0  0  0  0  0  0  0  0  0  0  0  0
    1.9467    2.0514   -4.5059 C   0  0  0  0  0  0  0  0  0  0  0  0
    0.7712    1.3013   -4.7753 C   0  0  0  0  0  0  0  0  0  0  0  0
   -0.7069    2.1060   -5.1147 Cl  0  0  0  0  0  0  0  0  0  0  0  0
    1.9716    3.7669   -4.5713 Cl  0  0  0  0  0  0  0  0  0  0  0  0
    0.0087   -2.1099   -3.7317 C   0  0  0  0  0  0  0  0  0  0  0  0
    0.8192   -1.9076   -2.2108 S   0  0  0  0  0  0  0  0  0  0  0  0
   -1.2991   -0.4164   -6.7786 C   0  0  0  0  0  0  0  0  0  0  0  0
   -2.4641   -0.7314   -7.4221 C   0  0  0  0  0  0  0  0  0  0  0  0
   -3.0221   -2.3404   -6.9879 S   0  0  0  0  0  0  0  0  0  0  0  0
   -3.3180    0.1998   -8.0744 C   0  0  0  0  0  0  0  0  0  0  0  0
   -3.1796    1.8595   -7.5824 S   0  0  0  0  0  0  0  0  0  0  0  0
   -4.6512    2.3168   -8.3697 C   0  0  0  0  0  0  0  0  0  0  0  0
   -5.1965    1.2218   -9.0498 C   0  0  0  0  0  0  0  0  0  0  0  0
   -4.4542    0.0148   -8.8600 C   0  0  0  0  0  0  0  0  0  0  0  0
   -4.9119   -1.1831   -9.4478 C   0  0  0  0  0  0  0  0  0  0  0  0
   -6.0568   -1.1989  -10.1867 C   0  0  0  0  0  0  0  0  0  0  0  0
   -6.5751   -2.4493  -10.8195 C   0  0  0  0  0  0  0  0  0  0  0  0
   -6.7997    0.0124  -10.3718 C   0  0  0  0  0  0  0  0  0  0  0  0
   -7.9202   -0.1318  -11.1300 O   0  0  0  0  0  0  0  0  0  0  0  0
   -8.7237    0.9963  -11.3672 C   0  0  0  0  0  0  0  0  0  0  0  0
   -6.3815    1.1918   -9.8147 C   0  0  0  0  0  0  0  0  0  0  0  0
   -5.1525    3.6537   -8.3386 C   0  0  0  0  0  0  0  0  0  0  0  0
   -4.8924    4.6204   -7.4340 C   0  0  0  0  0  0  0  0  0  0  0  0
   -4.1652    4.4732   -6.1970 C   0  0  0  0  0  0  0  0  0  0  0  0
   -4.2609    3.4954   -5.2544 C   0  0  0  0  0  0  0  0  0  0  0  0
   -3.3399    3.6352   -4.1849 C   0  0  0  0  0  0  0  0  0  0  0  0
   -3.0746    2.7147   -3.1523 C   0  0  0  0  0  0  0  0  0  0  0  0
   -4.0167    1.6491   -2.8633 C   0  0  0  0  0  0  0  0  0  0  0  0
   -5.6998    2.0647   -2.6552 S   0  0  0  0  0  0  0  0  0  0  0  0
   -6.1370    0.4451   -2.2283 C   0  0  0  0  0  0  0  0  0  0  0  0
   -7.5325    0.0971   -1.8446 C   0  0  0  0  0  0  0  0  0  0  0  0
   -7.8057    0.4640   -0.3841 C   0  0  0  0  0  0  0  0  0  0  0  0
   -5.0368   -0.3572   -2.2488 C   0  0  0  0  0  0  0  0  0  0  0  0
   -5.0522   -2.0268   -1.8545 Cl  0  0  0  0  0  0  0  0  0  0  0  0
   -3.8410    0.3159   -2.6197 C   0  0  0  0  0  0  0  0  0  0  0  0
   -2.3758   -0.5372   -2.8364 Cl  0  0  0  0  0  0  0  0  0  0  0  0
   -1.9009    2.9178   -2.4293 C   0  0  0  0  0  0  0  0  0  0  0  0
   -1.1085    4.0890   -2.5661 C   0  0  0  0  0  0  0  0  0  0  0  0
   -1.4879    5.0970   -3.4727 C   0  0  0  0  0  0  0  0  0  0  0  0
   -0.8201    6.3851   -3.5449 C   0  0  0  0  0  0  0  0  0  0  0  0
    0.9045    6.5647   -3.6631 S   0  0  0  0  0  0  0  0  0  0  0  0
    0.8122    8.2911   -3.7087 C   0  0  0  0  0  0  0  0  0  0  0  0
    2.0476    9.1189   -3.7784 C   0  0  0  0  0  0  0  0  0  0  0  0
    2.8622    9.0034   -2.4887 C   0  0  0  0  0  0  0  0  0  0  0  0
   -0.4865    8.6934   -3.6314 C   0  0  0  0  0  0  0  0  0  0  0  0
   -1.4126    7.6198   -3.5428 C   0  0  0  0  0  0  0  0  0  0  0  0
   -3.0952    7.8855   -3.3525 Cl  0  0  0  0  0  0  0  0  0  0  0  0
   -0.9869   10.3355   -3.6397 Cl  0  0  0  0  0  0  0  0  0  0  0  0
   -2.5484    4.7993   -4.3217 C   0  0  0  0  0  0  0  0  0  0  0  0
   -3.0003    5.7022   -5.7380 S   0  0  0  0  0  0  0  0  0  0  0  0
    0.0420    4.0479   -1.7419 C   0  0  0  0  0  0  0  0  0  0  0  0
    0.1705    2.8819   -1.0458 C   0  0  0  0  0  0  0  0  0  0  0  0
   -1.1818    1.8081   -1.3012 S   0  0  0  0  0  0  0  0  0  0  0  0
    1.2819    2.4841   -0.2376 C   0  0  0  0  0  0  0  0  0  0  0  0
    2.2046    3.2925    0.3556 C   0  0  0  0  0  0  0  0  0  0  0  0
    3.2144    2.5861    1.0565 C   0  0  0  0  0  0  0  0  0  0  0  0
    4.2805    3.1174    1.8027 C   0  0  0  0  0  0  0  0  0  0  0  0
    4.5054    4.5502    1.8849 C   0  0  0  0  0  0  0  0  0  0  0  0
    4.5571    5.5286    0.4445 S   0  0  0  0  0  0  0  0  0  0  0  0
    4.8907    6.9758    1.3355 C   0  0  0  0  0  0  0  0  0  0  0  0
    5.0777    8.2816    0.6456 C   0  0  0  0  0  0  0  0  0  0  0  0
    6.2747    8.2501   -0.3045 C   0  0  0  0  0  0  0  0  0  0  0  0
    4.9552    6.7002    2.6677 C   0  0  0  0  0  0  0  0  0  0  0  0
    5.2599    7.8768    3.8808 Cl  0  0  0  0  0  0  0  0  0  0  0  0
    4.7369    5.3315    2.9833 C   0  0  0  0  0  0  0  0  0  0  0  0
    4.6930    4.7824    4.6063 Cl  0  0  0  0  0  0  0  0  0  0  0  0
    5.1238    2.2044    2.4296 C   0  0  0  0  0  0  0  0  0  0  0  0
    4.9404    0.8036    2.3462 C   0  0  0  0  0  0  0  0  0  0  0  0
    3.8795    0.2723    1.5968 C   0  0  0  0  0  0  0  0  0  0  0  0
    3.7068   -1.1661    1.4534 C   0  0  0  0  0  0  0  0  0  0  0  0
    3.5897   -2.2302    2.8245 S   0  0  0  0  0  0  0  0  0  0  0  0
    3.4143   -3.6317    1.8259 C   0  0  0  0  0  0  0  0  0  0  0  0
    3.3116   -4.9953    2.4142 C   0  0  0  0  0  0  0  0  0  0  0  0
    4.6913   -5.6461    2.5332 C   0  0  0  0  0  0  0  0  0  0  0  0
    3.4645   -3.2832    0.5095 C   0  0  0  0  0  0  0  0  0  0  0  0
    3.6386   -1.8899    0.2955 C   0  0  0  0  0  0  0  0  0  0  0  0
    3.8658   -1.2241   -1.2632 Cl  0  0  0  0  0  0  0  0  0  0  0  0
    3.3164   -4.4029   -0.7821 Cl  0  0  0  0  0  0  0  0  0  0  0  0
    3.0340    1.1828    0.9722 C   0  0  0  0  0  0  0  0  0  0  0  0
    1.6263    0.7919    0.0267 S   0  0  0  0  0  0  0  0  0  0  0  0
    5.9765    0.0965    3.0239 C   0  0  0  0  0  0  0  0  0  0  0  0
    6.8947    0.9141    3.5760 C   0  0  0  0  0  0  0  0  0  0  0  0
    6.5671    2.5918    3.3226 S   0  0  0  0  0  0  0  0  0  0  0  0
    0.1768   -7.0382   13.3927 H   0  0  0  0  0  0  0  0  0  0  0  0
    1.4002   -4.9712   14.7618 H   0  0  0  0  0  0  0  0  0  0  0  0
    2.5009   -3.1272   15.8022 H   0  0  0  0  0  0  0  0  0  0  0  0
    2.2548   -1.5889   14.9535 H   0  0  0  0  0  0  0  0  0  0  0  0
    3.7828   -2.4335   14.7907 H   0  0  0  0  0  0  0  0  0  0  0  0
    2.3663   -0.6122   10.6996 H   0  0  0  0  0  0  0  0  0  0  0  0
    3.8390    0.0273   11.4698 H   0  0  0  0  0  0  0  0  0  0  0  0
    3.9151   -1.4863   10.5344 H   0  0  0  0  0  0  0  0  0  0  0  0
    2.0910   -2.8964   10.2979 H   0  0  0  0  0  0  0  0  0  0  0  0
    0.2542   -6.0393    8.3842 H   0  0  0  0  0  0  0  0  0  0  0  0
    0.8571   -3.0618    8.7441 H   0  0  0  0  0  0  0  0  0  0  0  0
    0.2772   -5.9090    6.1148 H   0  0  0  0  0  0  0  0  0  0  0  0
   -0.3638  -11.0978    3.2099 H   0  0  0  0  0  0  0  0  0  0  0  0
    1.0695  -10.5063    2.3472 H   0  0  0  0  0  0  0  0  0  0  0  0
   -1.7922  -10.4517    1.2711 H   0  0  0  0  0  0  0  0  0  0  0  0
   -0.5197  -11.5674    0.7645 H   0  0  0  0  0  0  0  0  0  0  0  0
   -0.3711   -9.8396    0.4196 H   0  0  0  0  0  0  0  0  0  0  0  0
    1.4881    2.8268    5.3860 H   0  0  0  0  0  0  0  0  0  0  0  0
    2.7155    2.7360    4.1339 H   0  0  0  0  0  0  0  0  0  0  0  0
    1.2950    4.2243    2.6752 H   0  0  0  0  0  0  0  0  0  0  0  0
    1.7806    4.9756    4.1954 H   0  0  0  0  0  0  0  0  0  0  0  0
    0.1364    4.3714    4.0018 H   0  0  0  0  0  0  0  0  0  0  0  0
    0.5068   -1.5132    0.5208 H   0  0  0  0  0  0  0  0  0  0  0  0
   -1.4085   -4.7713   -2.2306 H   0  0  0  0  0  0  0  0  0  0  0  0
   -4.4621   -8.8113   -4.9612 H   0  0  0  0  0  0  0  0  0  0  0  0
   -2.7666   -8.9354   -5.4633 H   0  0  0  0  0  0  0  0  0  0  0  0
   -3.1190  -10.1083   -3.3077 H   0  0  0  0  0  0  0  0  0  0  0  0
   -2.0414   -8.7245   -3.0878 H   0  0  0  0  0  0  0  0  0  0  0  0
   -3.7297   -8.6197   -2.5789 H   0  0  0  0  0  0  0  0  0  0  0  0
    4.6966    2.5585   -4.5190 H   0  0  0  0  0  0  0  0  0  0  0  0
    5.1040    0.9344   -3.9303 H   0  0  0  0  0  0  0  0  0  0  0  0
    5.4272    2.6547   -2.1534 H   0  0  0  0  0  0  0  0  0  0  0  0
    3.7289    3.1183   -2.2828 H   0  0  0  0  0  0  0  0  0  0  0  0
    4.1655    1.5103   -1.6970 H   0  0  0  0  0  0  0  0  0  0  0  0
   -0.7634    0.4888   -6.9885 H   0  0  0  0  0  0  0  0  0  0  0  0
   -4.3434   -2.0898   -9.3063 H   0  0  0  0  0  0  0  0  0  0  0  0
   -6.6623   -2.3163  -11.8966 H   0  0  0  0  0  0  0  0  0  0  0  0
   -5.9165   -3.2878  -10.6116 H   0  0  0  0  0  0  0  0  0  0  0  0
   -7.5709   -2.6727  -10.4400 H   0  0  0  0  0  0  0  0  0  0  0  0
   -8.1745    1.7752  -11.9064 H   0  0  0  0  0  0  0  0  0  0  0  0
   -9.1196    1.4111  -10.4344 H   0  0  0  0  0  0  0  0  0  0  0  0
   -9.5496    0.6460  -11.9845 H   0  0  0  0  0  0  0  0  0  0  0  0
   -6.9385    2.1050   -9.9451 H   0  0  0  0  0  0  0  0  0  0  0  0
   -5.8030    3.9108   -9.1656 H   0  0  0  0  0  0  0  0  0  0  0  0
   -5.2473    5.6220   -7.6400 H   0  0  0  0  0  0  0  0  0  0  0  0
   -4.9444    2.6700   -5.3410 H   0  0  0  0  0  0  0  0  0  0  0  0
   -7.6759   -0.9756   -1.9873 H   0  0  0  0  0  0  0  0  0  0  0  0
   -8.2310    0.6332   -2.4899 H   0  0  0  0  0  0  0  0  0  0  0  0
   -8.8259    0.2016   -0.1173 H   0  0  0  0  0  0  0  0  0  0  0  0
   -7.1244   -0.0715    0.2723 H   0  0  0  0  0  0  0  0  0  0  0  0
   -7.6676    1.5319   -0.2319 H   0  0  0  0  0  0  0  0  0  0  0  0
    2.6601    8.7879   -4.6205 H   0  0  0  0  0  0  0  0  0  0  0  0
    1.7595   10.1578   -3.9461 H   0  0  0  0  0  0  0  0  0  0  0  0
    3.7589    9.6137   -2.5575 H   0  0  0  0  0  0  0  0  0  0  0  0
    2.2710    9.3433   -1.6413 H   0  0  0  0  0  0  0  0  0  0  0  0
    3.1534    7.9683   -2.3219 H   0  0  0  0  0  0  0  0  0  0  0  0
    0.7820    4.8257   -1.7167 H   0  0  0  0  0  0  0  0  0  0  0  0
    2.1505    4.3640    0.3062 H   0  0  0  0  0  0  0  0  0  0  0  0
    5.2238    9.0519    1.4044 H   0  0  0  0  0  0  0  0  0  0  0  0
    4.1764    8.5242    0.0777 H   0  0  0  0  0  0  0  0  0  0  0  0
    7.1863    8.0224    0.2423 H   0  0  0  0  0  0  0  0  0  0  0  0
    6.3924    9.2158   -0.7885 H   0  0  0  0  0  0  0  0  0  0  0  0
    6.1293    7.4906   -1.0690 H   0  0  0  0  0  0  0  0  0  0  0  0
    2.8529   -4.9298    3.4019 H   0  0  0  0  0  0  0  0  0  0  0  0
    2.6772   -5.6126    1.7746 H   0  0  0  0  0  0  0  0  0  0  0  0
    5.3353   -5.0536    3.1787 H   0  0  0  0  0  0  0  0  0  0  0  0
    5.1559   -5.7248    1.5539 H   0  0  0  0  0  0  0  0  0  0  0  0
    4.5940   -6.6427    2.9546 H   0  0  0  0  0  0  0  0  0  0  0  0
    6.0228   -0.9750    3.0790 H   0  0  0  0  0  0  0  0  0  0  0  0
    7.7697    0.6435    4.1338 H   0  0  0  0  0  0  0  0  0  0  0  0
  1  2  1  0  0  0  0
  2  3  1  0  0  0  0
  3  4  2  0  0  0  0
  4  5  1  0  0  0  0
  5  6  1  0  0  0  0
  6  7  2  0  0  0  0
  7  8  1  0  0  0  0
  7  9  1  0  0  0  0
  9 10  1  0  0  0  0
 10 11  1  0  0  0  0
  9 12  2  0  0  0  0
  3 13  1  0  0  0  0
 13 14  2  0  0  0  0
 14 15  1  0  0  0  0
 15 16  2  0  0  0  0
 16 17  1  0  0  0  0
 17 18  2  0  0  0  0
 18 19  1  0  0  0  0
 19 20  1  0  0  0  0
 20 21  1  0  0  0  0
 21 22  1  0  0  0  0
 22 23  1  0  0  0  0
 21 24  2  0  0  0  0
 24 25  1  0  0  0  0
 24 26  1  0  0  0  0
 26 27  1  0  0  0  0
 18 28  1  0  0  0  0
 28 29  2  0  0  0  0
 29 30  1  0  0  0  0
 30 31  1  0  0  0  0
 31 32  1  0  0  0  0
 32 33  1  0  0  0  0
 33 34  1  0  0  0  0
 34 35  1  0  0  0  0
 33 36  2  0  0  0  0
 36 37  1  0  0  0  0
 37 38  1  0  0  0  0
 36 39  1  0  0  0  0
 30 40  2  0  0  0  0
 40 41  1  0  0  0  0
 29 42  1  0  0  0  0
 42 43  2  0  0  0  0
 43 44  1  0  0  0  0
 43 45  1  0  0  0  0
 45 46  2  0  0  0  0
 46 47  1  0  0  0  0
 47 48  2  0  0  0  0
 48 49  1  0  0  0  0
 49 50  1  0  0  0  0
 50 51  1  0  0  0  0
 51 52  1  0  0  0  0
 52 53  1  0  0  0  0
 51 54  2  0  0  0  0
 54 55  1  0  0  0  0
 54 56  1  0  0  0  0
 56 57  1  0  0  0  0
 48 58  1  0  0  0  0
 58 59  2  0  0  0  0
 59 60  1  0  0  0  0
 60 61  1  0  0  0  0
 61 62  1  0  0  0  0
 62 63  1  0  0  0  0
 63 64  1  0  0  0  0
 64 65  1  0  0  0  0
 63 66  2  0  0  0  0
 66 67  1  0  0  0  0
 67 68  1  0  0  0  0
 66 69  1  0  0  0  0
 60 70  2  0  0  0  0
 70 71  1  0  0  0  0
 59 72  1  0  0  0  0
 72 73  2  0  0  0  0
 73 74  1  0  0  0  0
 73 75  1  0  0  0  0
 75 76  1  0  0  0  0
 76 77  1  0  0  0  0
 77 78  2  0  0  0  0
 78 79  1  0  0  0  0
 79 80  1  0  0  0  0
 80 81  2  0  0  0  0
 81 82  1  0  0  0  0
 81 83  1  0  0  0  0
 83 84  1  0  0  0  0
 84 85  1  0  0  0  0
 83 86  2  0  0  0  0
 77 87  1  0  0  0  0
 87 88  2  0  0  0  0
 88 89  1  0  0  0  0
 89 90  2  0  0  0  0
 90 91  1  0  0  0  0
 91 92  2  0  0  0  0
 92 93  1  0  0  0  0
 93 94  1  0  0  0  0
 94 95  1  0  0  0  0
 95 96  1  0  0  0  0
 96 97  1  0  0  0  0
 95 98  2  0  0  0  0
 98 99  1  0  0  0  0
 98100  1  0  0  0  0
100101  1  0  0  0  0
 92102  1  0  0  0  0
102103  2  0  0  0  0
103104  1  0  0  0  0
104105  1  0  0  0  0
105106  1  0  0  0  0
106107  1  0  0  0  0
107108  1  0  0  0  0
108109  1  0  0  0  0
107110  2  0  0  0  0
110111  1  0  0  0  0
111112  1  0  0  0  0
110113  1  0  0  0  0
104114  2  0  0  0  0
114115  1  0  0  0  0
103116  1  0  0  0  0
116117  2  0  0  0  0
117118  1  0  0  0  0
117119  1  0  0  0  0
119120  2  0  0  0  0
120121  1  0  0  0  0
121122  2  0  0  0  0
122123  1  0  0  0  0
123124  1  0  0  0  0
124125  1  0  0  0  0
125126  1  0  0  0  0
126127  1  0  0  0  0
125128  2  0  0  0  0
128129  1  0  0  0  0
128130  1  0  0  0  0
130131  1  0  0  0  0
122132  1  0  0  0  0
132133  2  0  0  0  0
133134  1  0  0  0  0
134135  1  0  0  0  0
135136  1  0  0  0  0
136137  1  0  0  0  0
137138  1  0  0  0  0
138139  1  0  0  0  0
137140  2  0  0  0  0
140141  1  0  0  0  0
141142  1  0  0  0  0
140143  1  0  0  0  0
134144  2  0  0  0  0
144145  1  0  0  0  0
133146  1  0  0  0  0
146147  2  0  0  0  0
147148  1  0  0  0  0
  5  1  2  0  0  0  0
 41 15  1  0  0  0  0
 71 45  1  0  0  0  0
 79 75  2  0  0  0  0
115 89  1  0  0  0  0
145119  1  0  0  0  0
 12  4  1  0  0  0  0
 40 17  1  0  0  0  0
 70 47  1  0  0  0  0
 86 78  1  0  0  0  0
114 91  1  0  0  0  0
144121  1  0  0  0  0
 26 19  2  0  0  0  0
 44 28  1  0  0  0  0
 56 49  2  0  0  0  0
 74 58  1  0  0  0  0
100 93  2  0  0  0  0
118102  1  0  0  0  0
130123  2  0  0  0  0
148132  1  0  0  0  0
 37 31  2  0  0  0  0
 67 61  2  0  0  0  0
111105  2  0  0  0  0
141135  2  0  0  0  0
  1149  1  0  0  0  0
  6150  1  0  0  0  0
  8151  1  0  0  0  0
  8152  1  0  0  0  0
  8153  1  0  0  0  0
 11154  1  0  0  0  0
 11155  1  0  0  0  0
 11156  1  0  0  0  0
 12157  1  0  0  0  0
 13158  1  0  0  0  0
 14159  1  0  0  0  0
 16160  1  0  0  0  0
 22161  1  0  0  0  0
 22162  1  0  0  0  0
 23163  1  0  0  0  0
 23164  1  0  0  0  0
 23165  1  0  0  0  0
 34166  1  0  0  0  0
 34167  1  0  0  0  0
 35168  1  0  0  0  0
 35169  1  0  0  0  0
 35170  1  0  0  0  0
 42171  1  0  0  0  0
 46172  1  0  0  0  0
 52173  1  0  0  0  0
 52174  1  0  0  0  0
 53175  1  0  0  0  0
 53176  1  0  0  0  0
 53177  1  0  0  0  0
 64178  1  0  0  0  0
 64179  1  0  0  0  0
 65180  1  0  0  0  0
 65181  1  0  0  0  0
 65182  1  0  0  0  0
 72183  1  0  0  0  0
 80184  1  0  0  0  0
 82185  1  0  0  0  0
 82186  1  0  0  0  0
 82187  1  0  0  0  0
 85188  1  0  0  0  0
 85189  1  0  0  0  0
 85190  1  0  0  0  0
 86191  1  0  0  0  0
 87192  1  0  0  0  0
 88193  1  0  0  0  0
 90194  1  0  0  0  0
 96195  1  0  0  0  0
 96196  1  0  0  0  0
 97197  1  0  0  0  0
 97198  1  0  0  0  0
 97199  1  0  0  0  0
108200  1  0  0  0  0
108201  1  0  0  0  0
109202  1  0  0  0  0
109203  1  0  0  0  0
109204  1  0  0  0  0
116205  1  0  0  0  0
120206  1  0  0  0  0
126207  1  0  0  0  0
126208  1  0  0  0  0
127209  1  0  0  0  0
127210  1  0  0  0  0
127211  1  0  0  0  0
138212  1  0  0  0  0
138213  1  0  0  0  0
139214  1  0  0  0  0
139215  1  0  0  0  0
139216  1  0  0  0  0
146217  1  0  0  0  0
147218  1  0  0  0  0
M  END
