218

C          5.40500       -2.71920        0.47030
C          5.85230       -1.44860        0.52830
C          5.16870       -0.58030       -0.37190
C          5.37960        0.79070       -0.59420
C          6.51610        1.49060       -0.02280
S          6.36810        3.06260        0.70710
C          8.06870        3.17680        1.00730
C          8.66060        4.39980        1.62060
C          9.60240        5.11830        0.65150
C          8.70050        2.05080        0.56870
Cl        10.38730        1.76890        0.71760
C          7.82900        1.10040       -0.02510
Cl         8.42070       -0.33070       -0.76860
C          4.47800        1.43170       -1.43540
C          3.45480        0.75520       -2.14530
C          3.30780       -0.63610       -1.99590
C          2.31590       -1.38620       -2.74900
S          1.21680       -2.48910       -1.96700
C          0.42250       -2.88300       -3.45060
C         -0.72640       -3.83100       -3.48080
C         -0.39440       -5.12890       -4.21530
C          0.99780       -2.20800       -4.48640
C          2.07120       -1.36610       -4.09570
Cl         3.01010       -0.49240       -5.23640
Cl         0.46710       -2.31780       -6.11650
C          4.14970       -1.25910       -1.07900
S          4.12560       -2.94810       -0.66790
C          2.68270        1.64670       -2.93710
C          3.09590        2.94300       -2.86220
S          4.46690        3.13510       -1.77810
C          2.62600        4.11050       -3.53470
S          2.66190        5.62500       -2.70630
C          2.20070        6.51990       -4.11590
C          2.01620        5.64440       -5.20180
C          2.24030        4.27520       -4.86440
C          2.11710        3.28120       -5.85810
C          1.76150        3.61220       -7.13120
C          1.61970        2.58320       -8.20590
C          1.51700        4.98280       -7.46210
O          1.16690        5.18990       -8.76150
C          0.91990        6.50380       -9.19330
C          1.64590        5.97210       -6.52200
C          1.95930        7.91890       -4.13340
C          1.78230        8.79440       -3.11420
C          1.85550        8.53810       -1.70520
S          0.46090        8.91140       -0.73990
C          1.13750        8.17760        0.68570
C          2.45040        7.75600        0.43360
C          2.85510        7.97500       -0.91790
C          4.17220        7.63840       -1.30740
C          5.01840        7.02600       -0.43180
C          6.40100        6.61820       -0.82140
C          4.57740        6.73810        0.89940
O          5.49270        6.09420        1.67530
C          5.10460        5.69860        2.96880
C          3.33160        7.11820        1.32720
C          0.33590        7.84940        1.79940
C         -1.01500        7.97110        1.83920
C         -1.83750        7.23430        2.73060
C         -3.11420        6.82280        2.45540
C         -3.53750        5.72530        3.23870
C         -4.64770        4.89440        2.99170
C         -5.67720        5.29150        2.05310
S         -6.23840        4.23860        0.78620
C         -7.35000        5.42240        0.18650
C         -8.24570        5.11470       -0.96190
C         -9.38440        4.18580       -0.53540
C         -7.28790        6.55630        0.94020
Cl        -8.25410        7.94800        0.66310
C         -6.33580        6.49030        1.99180
Cl        -6.10790        7.77070        3.11120
C         -4.61730        3.64000        3.58890
C         -3.66460        3.27290        4.56710
C         -2.66750        4.19060        4.96050
C         -1.74950        3.86090        6.03080
S         -0.03360        4.11810        5.91060
C          0.25300        3.49000        7.49790
C          1.62300        3.46610        8.08010
C          1.99440        4.83480        8.65560
C         -0.92240        3.12220        8.08150
C         -2.05770        3.32270        7.25290
Cl        -3.65380        2.99210        7.78990
Cl        -1.04270        2.47060        9.66480
C         -2.56780        5.35010        4.20190
S         -1.18750        6.41290        4.14370
C         -3.69490        1.87980        4.84120
C         -4.58720        1.20310        4.06760
S         -5.57900        2.27490        3.09830
C         -4.53290       -0.18250        3.69300
C         -4.46900       -0.56630        2.38810
C         -4.08780       -1.91610        2.21280
C         -3.68920       -2.52910        1.01360
C         -3.75290       -1.81530       -0.25010
S         -2.33860       -1.66640       -1.25330
C         -3.16790       -0.68990       -2.41790
C         -2.46860       -0.18180       -3.63130
C         -1.20450        0.60180       -3.28110
C         -4.46290       -0.50060       -2.03630
Cl        -5.60640        0.41500       -2.92960
C         -4.79900       -1.13530       -0.80910
Cl        -6.38550       -1.09510       -0.15570
C         -3.11830       -3.78810        1.12390
C         -3.01430       -4.49270        2.34860
C         -3.45570       -3.89090        3.54350
C         -3.37120       -4.57350        4.82240
S         -1.91230       -5.35420        5.36070
C         -2.63370       -5.86290        6.84990
C         -1.87600       -6.69710        7.82270
C         -1.73480       -8.13580        7.31970
C         -3.92930       -5.44550        6.91150
C         -4.34840       -4.70830        5.77080
Cl        -5.95430       -4.13970        5.59010
Cl        -4.97870       -5.76610        8.23040
C         -3.93400       -2.58760        3.44970
S         -4.23040       -1.50670        4.79010
C         -2.37230       -5.74600        2.17680
C         -1.95240       -5.97040        0.89900
S         -2.41130       -4.67920       -0.18680
C         -1.12440       -7.02880        0.41190
C         -0.82490       -8.22030        1.00170
C          0.12620       -8.98160        0.27510
C          0.64940      -10.24750        0.58460
C          0.18100      -10.97780        1.75110
S          1.28080      -11.53350        2.97720
C         -0.00070      -12.18180        3.94160
C          0.26440      -12.79300        5.27310
C          0.22310      -11.73190        6.37600
C         -1.20390      -11.97360        3.33540
Cl        -2.70620      -12.47900        3.99380
C         -1.10490      -11.29370        2.09230
Cl        -2.46930      -10.97350        1.09990
C          1.62970      -10.74990       -0.26220
C          2.11660      -10.04350       -1.38810
C          1.60490       -8.77310       -1.69030
C          2.14610       -7.94540       -2.75900
S          2.22400       -8.45270       -4.41860
C          2.93650       -6.95830       -4.92580
C          3.26310       -6.69540       -6.35480
C          2.16790       -5.86960       -7.03310
C          3.09070       -6.12110       -3.86090
C          2.65200       -6.68020       -2.63050
Cl         2.82760       -5.86460       -1.13300
Cl         3.74340       -4.53640       -3.97190
C          0.59430       -8.28930       -0.86870
S         -0.24040       -6.78150       -1.07660
C          3.13510      -10.77490       -2.06620
C          3.38560      -11.97170       -1.49780
S          2.41890      -12.29350       -0.09960
H          5.74360       -3.56440        1.03720
H          6.62370       -1.11940        1.19950
H          7.85000        5.07240        1.90080
H          9.21690        4.12100        2.51970
H         10.45040        4.48780        0.40160
H          9.07920        5.37440       -0.26580
H          9.97350        6.03180        1.10880
H         -1.01540       -4.05940       -2.45580
H         -1.57280       -3.34920       -3.97720
H          0.44700       -5.62380       -3.74080
H         -0.14620       -4.92940       -5.25330
H         -1.25070       -5.79650       -4.18170
H          1.81800        1.34160       -3.49570
H          2.31970        2.25370       -5.60190
H          1.83870        1.59150       -7.82000
H          0.60740        2.59790       -8.60710
H          2.29670        2.80620       -9.02890
H          0.66380        6.42460      -10.24870
H          1.80680        7.13680       -9.08350
H          0.08240        6.95510       -8.65100
H          1.47120        7.00450       -6.77620
H          1.80020        8.31660       -5.12780
H          1.40620        9.77630       -3.37710
H          4.49510        7.86980       -2.31130
H          6.63070        6.94740       -1.83090
H          7.12620        7.03990       -0.12810
H          6.48320        5.53330       -0.77100
H          4.89650        6.56280        3.60810
H          5.94700        5.14370        3.37910
H          4.22680        5.04640        2.93880
H          3.00540        6.94110        2.33860
H          0.83140        7.33250        2.61090
H         -1.53010        8.47520        1.03160
H         -3.67620        7.20410        1.62250
H         -7.66740        4.63410       -1.75380
H         -8.65500        6.05050       -1.34620
H         -9.98050        4.65210        0.24500
H        -10.02820        3.97030       -1.38400
H         -8.98270        3.25000       -0.15410
H          2.34120        3.19090        7.30560
H          1.65410        2.71480        8.87100
H          1.29680        5.11460        9.44070
H          2.99670        4.80500        9.07450
H          1.96190        5.59200        7.87580
H         -2.99030        1.38300        5.48350
H         -4.59740        0.12810        1.57880
H         -3.16110        0.45320       -4.18640
H         -2.19450       -1.02550       -4.27080
H         -1.44950        1.47430       -2.68050
H         -0.71260        0.93460       -4.19170
H         -0.51690       -0.02480       -2.71730
H         -0.88270       -6.26950        7.97420
H         -2.40850       -6.68930        8.77490
H         -2.71540       -8.58150        7.17220
H         -1.19780       -8.15310        6.37400
H         -1.18600       -8.73240        8.04360
H         -2.18430       -6.43450        2.97870
H         -1.26140       -8.54300        1.92810
H         -0.49550      -13.55170        5.46970
H          1.24460      -13.27170        5.26330
H         -0.75440      -11.25730        6.40550
H          0.41780      -12.19030        7.34170
H          0.97550      -10.96840        6.19300
H          3.38260       -7.64560       -6.87720
H          4.20700       -6.14780       -6.40310
H          2.06110       -4.90910       -6.53690
H          2.42470       -5.69590       -8.07460
H          1.21680       -6.39510       -6.99090
H          3.64220      -10.40980       -2.94020
H          4.09460      -12.71340       -1.80970
