218

C          2.17740       -5.30650        9.99620
C          2.49060       -5.23890        8.68650
C          1.34510       -5.29340        7.83930
C          1.29710       -5.29180        6.43540
C          2.49560       -5.10760        5.63170
S          3.56340       -3.76480        5.93580
C          4.61080       -4.18800        4.62350
C          5.84960       -3.41200        4.33890
C          5.58400       -1.91690        4.18090
C          4.13920       -5.29960        3.99270
Cl         4.90820       -6.03240        2.64620
C          2.94430       -5.82420        4.55740
Cl         2.22490       -7.27440        3.99440
C          0.03910       -5.40300        5.85230
C         -1.16110       -5.46470        6.60310
C         -1.10730       -5.49640        8.00570
C         -2.31950       -5.61880        8.79670
S         -2.69340       -4.50570       10.07840
C         -4.18290       -5.30640       10.44340
C         -5.10700       -4.78350       11.48690
C         -6.06510       -3.74690       10.89420
C         -4.36630       -6.37150        9.61220
C         -3.31150       -6.55350        8.67890
Cl        -3.27040       -7.86680        7.57410
Cl        -5.73010       -7.41120        9.67660
C          0.15090       -5.40660        8.58930
S          0.48000       -5.44000       10.29870
C         -2.31230       -5.40720        5.77300
C         -2.01750       -5.34780        4.44650
S         -0.29260       -5.36750        4.14890
C         -2.89650       -5.17250        3.32910
C         -4.06530       -4.47390        3.29090
C         -4.57020       -4.29040        1.97740
C         -5.64790       -3.47020        1.58100
C         -6.56390       -2.92710        2.56310
S         -7.05610       -1.25870        2.54900
C         -8.06190       -1.46130        3.94130
C         -8.79230       -0.31000        4.53860
C         -7.90090        0.45160        5.52280
C         -8.00950       -2.75060        4.38190
Cl        -8.87900       -3.33290        5.74250
C         -7.16730       -3.58590        3.60260
Cl        -7.01560       -5.26920        3.90590
C         -5.72150       -3.15930        0.22740
C         -4.89170       -3.78120       -0.73560
C         -3.93510       -4.74320       -0.35820
C         -3.13430       -5.40470       -1.36720
S         -1.40880       -5.53900       -1.22790
C         -1.25620       -6.29450       -2.77280
C          0.06690       -6.74520       -3.28320
C          0.43240       -8.11740       -2.71280
C         -2.48380       -6.44730       -3.34740
C         -3.54940       -5.94170       -2.55910
Cl        -5.19280       -6.09030       -3.03620
Cl        -2.73630       -7.16700       -4.88520
C         -3.73890       -4.90120        1.00730
S         -2.40200       -5.73200        1.74610
C         -4.98180       -3.15720       -1.99680
C         -5.81350       -2.07260       -2.01840
S         -6.66670       -1.88210       -0.49810
C         -5.70750       -1.02640       -2.98580
C         -4.79800       -1.03830       -4.00710
C         -4.44160        0.24810       -4.45800
C         -3.33910        0.57100       -5.26520
C         -2.45310       -0.47340       -5.75840
S         -2.09650       -0.64380       -7.44960
C         -1.10620       -2.03900       -7.18080
C         -0.40550       -2.71160       -8.30900
C          0.82390       -1.90970       -8.74400
C         -1.05250       -2.33290       -5.85120
Cl        -0.18520       -3.65700       -5.18970
C         -1.81140       -1.44550       -5.04130
Cl        -1.83120       -1.56740       -3.32400
C         -3.07990        1.91640       -5.45060
C         -3.88810        2.95020       -4.91520
C         -4.99840        2.61930       -4.10800
C         -5.84400        3.65650       -3.54130
S         -6.56630        4.84790       -4.58710
C         -7.37680        5.62870       -3.27300
C         -8.28380        6.78680       -3.50130
C         -9.69630        6.31240       -3.85160
C         -7.09790        4.99030       -2.10260
C         -6.22790        3.87500       -2.24590
Cl        -5.64630        3.00650       -0.88950
Cl        -7.71120        5.48230       -0.57780
C         -5.21440        1.26960       -3.85170
S         -6.34720        0.58300       -2.71370
C         -3.30110        4.22140       -5.12050
C         -2.06200        4.18190       -5.70890
S         -1.63440        2.54490       -6.17910
C         -1.11410        5.23660       -5.77450
S         -1.59310        6.84210       -5.29860
C          0.04100        7.37010       -5.11240
C          0.92350        6.37800       -5.52670
C          0.27620        5.16730       -5.92030
C          1.08430        4.08360       -6.32710
C          2.44450        4.17730       -6.32550
C          3.31280        3.03030       -6.72800
C          3.07980        5.40250       -5.94350
O          4.43750        5.37550       -5.99800
C          5.14540        6.52840       -5.61420
C          2.33180        6.48420       -5.57200
C          0.43280        8.57230       -4.40090
C          1.20150        8.46760       -3.30070
C          1.40080        7.17010       -2.69040
S          2.93960        6.44170       -2.39570
C          2.23870        4.88470       -2.05250
C          0.84070        4.95280       -2.12840
C          0.37630        6.26450       -2.42690
C         -1.00600        6.54360       -2.34460
C         -1.89990        5.54840       -2.09470
C         -3.35550        5.83120       -1.91640
C         -1.43760        4.19590       -1.98450
O         -2.42680        3.27000       -1.88460
C         -2.07860        1.90890       -1.86000
C         -0.09610        3.91230       -1.96410
C          2.99300        3.75150       -1.69240
C          4.31920        3.67450       -1.42510
C          4.93200        2.46440       -0.99820
C          6.22230        2.25810       -0.59280
C          6.49550        0.92450       -0.19960
C          7.68000        0.39370        0.33860
C          8.85840        1.21660        0.55480
S          9.60130        2.11530       -0.73480
C         10.84890        2.72300        0.30010
C         11.93990        3.58720       -0.22870
C         13.08400        2.73980       -0.79050
C         10.68770        2.24490        1.56570
Cl        11.72930        2.63110        2.87430
C          9.55950        1.39490        1.71450
Cl         9.09480        0.73960        3.22790
C          7.67840       -0.95710        0.67200
C          6.54730       -1.78940        0.51400
C          5.35100       -1.25410        0.01220
C          4.14430       -2.05580       -0.10120
S          3.51440       -2.91870        1.27330
C          2.12410       -3.46080        0.40270
C          1.11590       -4.34270        1.04710
C          1.41660       -5.81550        0.76860
C          2.16830       -3.00870       -0.88150
C          3.30880       -2.21290       -1.17160
Cl         3.61540       -1.60140       -2.74240
Cl         0.95610       -3.32210       -2.05130
C          5.35760        0.08980       -0.33530
S          3.98700        0.98500       -0.91310
C          6.82980       -3.13980        0.86980
C          8.10360       -3.31670        1.27680
S          9.04300       -1.86420        1.26290
H          2.84630       -5.29040       10.83420
H          3.49700       -5.16350        8.31870
H          6.29820       -3.80530        3.42580
H          6.55850       -3.56200        5.15890
H          5.14760       -1.51050        5.09020
H          4.90030       -1.73930        3.35490
H          6.51540       -1.39510        3.97740
H         -5.68010       -5.61670       11.89790
H         -4.52620       -4.32640       12.28950
H         -5.50690       -2.90750       10.48630
H         -6.73890       -3.37840       11.66290
H         -6.65560       -4.19220       10.09750
H         -3.31800       -5.40290        6.15020
H         -4.50110       -4.02320        4.16330
H         -9.11430        0.36450        3.74370
H         -9.67450       -0.68580        5.06020
H         -7.58180       -0.20500        6.32840
H         -8.44690        1.28810        5.95030
H         -7.01890        0.83300        5.01400
H          0.02260       -6.79950       -4.37270
H          0.83020       -6.01710       -3.00270
H          0.46620       -8.07940       -1.62630
H         -0.30570       -8.85790       -3.01130
H          1.40610       -8.42760       -3.08240
H         -4.34950       -3.42840       -2.81980
H         -4.33980       -1.93350       -4.37970
H         -1.08940       -2.81200       -9.15440
H         -0.10090       -3.70830       -7.98490
H          1.32430       -2.41050       -9.56840
H          0.52810       -0.91370       -9.06720
H          1.52400       -1.81420       -7.91680
H         -8.31620        7.39050       -2.59240
H         -7.89310        7.39860       -4.31620
H         -9.67850        5.71190       -4.75800
H        -10.10180        5.70940       -3.04310
H        -10.34880        7.16650       -4.01090
H         -3.73490        5.14260       -4.77730
H          0.62730        3.16540       -6.65660
H          3.95830        2.74720       -5.89760
H          2.71220        2.17420       -7.02260
H          3.95910        3.32080       -7.55450
H          6.19940        6.27090       -5.70510
H          4.92080        7.37450       -6.27180
H          4.92550        6.80540       -4.57820
H          2.78030        7.42720       -5.30470
H          0.12660        9.53580       -4.78430
H          1.65450        9.33770       -2.84560
H         -1.34030        7.56500       -2.44990
H         -3.94750        5.09990       -2.45660
H         -3.60120        6.83290       -2.25950
H         -3.62100        5.74600       -0.86280
H         -3.02020        1.36200       -1.84940
H         -1.50750        1.62540       -2.75020
H         -1.50450        1.65370       -0.96370
H          0.25810        2.90510       -1.81970
H          2.41240        2.84320       -1.58540
H          4.95160        4.54880       -1.49720
H          6.95400        3.04490       -0.56570
H         12.31440        4.21430        0.58260
H         11.54350        4.23090       -1.01590
H         13.87490        3.38260       -1.16760
H         12.72510        2.11270       -1.60320
H         13.49490        2.10020       -0.01350
H          0.12520       -4.09990        0.65840
H          1.12270       -4.16870        2.12350
H          2.39490       -6.08300        1.15850
H          0.66450       -6.43730        1.24500
H          1.40230       -6.00480       -0.30120
H          6.10720       -3.93240        0.80390
H          8.57480       -4.22690        1.59300
