76

C          0.37840        5.42290        6.82570
O         -0.65980        4.61020        6.99370
C         -0.67180        3.73890        5.96430
C          0.37960        3.99290        5.11440
C          1.05970        5.09450        5.68290
C          2.28130        5.74360        5.13530
F          3.36490        4.95210        5.22730
F          2.58290        6.88210        5.77200
F          2.15360        6.04590        3.83270
C         -1.67870        2.72350        5.87970
O         -1.65480        1.89380        4.82710
C         -2.67120        1.00840        4.96810
C         -3.36980        1.27100        6.12610
C         -2.72850        2.38030        6.71420
C         -3.10020        3.05470        7.98890
F         -3.39610        4.35470        7.81310
F         -4.16830        2.49300        8.56300
F         -2.10880        3.01580        8.89660
C         -2.79740        0.01740        3.94660
O         -1.96750        0.11330        2.88970
C         -2.20510       -0.92660        2.06190
C         -3.21280       -1.71640        2.58820
C         -3.59470       -1.10700        3.79670
C         -4.64270       -1.58800        4.73370
F         -4.15710       -1.83400        5.96560
F         -5.63280       -0.69070        4.90440
F         -5.21810       -2.71840        4.31510
C         -1.44420       -1.07440        0.87200
S         -1.57330       -2.51690       -0.06130
C         -0.41580       -1.96750       -1.23770
C          0.07160       -0.69450       -0.89170
C         -0.52150       -0.18640        0.30500
C         -0.15450        1.08980        0.78110
C          0.77900        1.83560        0.12320
C          1.18520        3.19320        0.59290
C          1.40970        1.30380       -1.04680
O          2.34130        2.11330       -1.59870
C          3.00620        1.69540       -2.76900
C          1.06510        0.06730       -1.53570
C         -0.12220       -2.84710       -2.30560
C          0.52570       -2.55690       -3.46180
C          0.84330       -3.53880       -4.43780
O          0.51620       -4.83160       -4.27860
C          0.98140       -5.52160       -5.34860
C          1.62220       -4.66970       -6.22150
C          1.53510       -3.39340       -5.63760
C          2.07590       -2.11990       -6.17270
F          2.87540       -1.48650       -5.28330
F          1.10740       -1.22610       -6.46530
F          2.79530       -2.28320       -7.28310
C          0.74480       -6.93430       -5.38290
O          0.04580       -7.49670       -4.38260
C         -0.04450       -8.81110       -4.62590
C          0.59100       -9.13500       -5.78460
C          1.11060       -7.91660       -6.28790
C          1.89780       -7.75670       -7.53600
F          1.30870       -6.93080       -8.42330
F          3.12280       -7.23960       -7.31490
F          2.08500       -8.92020       -8.16720
H          0.54700        6.18970        7.55560
H          0.63020        3.46440        4.21880
H         -4.22360        0.75660        6.51370
H         -3.62230       -2.60910        2.16300
H         -0.61940        1.47310        1.67430
H          2.24270        3.19950        0.85210
H          1.04790        3.92030       -0.20530
H          0.60110        3.49730        1.45690
H          2.30450        1.53090       -3.59200
H          3.58680        0.78380       -2.60010
H          3.68080        2.50920       -3.02820
H          1.57010       -0.33530       -2.39400
H         -0.47490       -3.86290       -2.17630
H          0.82580       -1.55390       -3.70920
H          2.09420       -4.90660       -7.15090
H         -0.57780       -9.40780       -3.91360
H          0.68870      -10.09980       -6.23620
