101

C         13.48980       -1.95810       -1.00650
C         12.58070       -0.89760       -1.15540
N         11.97390       -0.20950       -0.18600
S         11.05910        0.92720       -0.85850
N         11.37690        0.61120       -2.39930
C         12.21740       -0.42090       -2.46420
C         12.75730       -1.02800       -3.62780
C         13.67530       -2.03630       -3.42330
C         14.02590       -2.49930       -2.14260
C         12.41150       -0.57770       -4.96810
C         11.20620       -0.17040       -5.38600
C          9.97290       -0.23000       -4.62740
C          9.01970        0.80780       -4.75460
N          9.10840        1.88850       -5.52960
S          7.80050        2.79470       -5.30260
N          7.05630        1.86940       -4.21620
C          7.80800        0.79540       -3.98080
C          7.51010       -0.27420       -3.09300
C          8.44910       -1.29420       -3.04340
C          9.63230       -1.27110       -3.78280
C          6.28140       -0.23000       -2.35000
C          5.86980       -1.14060       -1.44360
C          4.62970       -1.10880       -0.72210
C          4.35630       -2.14350        0.21370
N          5.16360       -3.15890        0.51320
S          4.45020       -4.08340        1.61800
N          3.08390       -3.24610        1.77100
C          3.12280       -2.19270        0.95690
C          2.12630       -1.19410        0.76880
C          2.44200       -0.19700       -0.14930
C          3.63510       -0.15010       -0.86270
C          0.85970       -1.17250        1.43840
C          0.43610       -2.07800        2.34600
C         -0.84310       -2.06840        2.99410
C         -1.85460       -1.09360        2.76530
N         -1.78670       -0.01320        1.98730
S         -3.17270        0.79630        2.08320
N         -3.92960       -0.16400        3.11970
C         -3.13200       -1.18780        3.42440
C         -3.43060       -2.26020        4.30440
C         -2.39510       -3.14460        4.55480
C         -1.16120       -3.06010        3.91400
C         -4.71100       -2.38870        4.96670
C         -5.93050       -2.18380        4.42870
C         -6.26390       -2.00000        3.05630
S         -5.25680       -2.53070        1.75590
C         -6.34150       -1.94290        0.54060
C         -7.50400       -1.44210        1.12830
C         -7.45020       -1.45540        2.55430
C         -8.51450       -0.88260        3.28300
C         -9.59930       -0.36120        2.64220
C        -10.72880        0.28010        3.38200
C         -9.68430       -0.43600        1.21490
O        -10.84130        0.06170        0.69530
C        -11.03130        0.00510       -0.69530
C         -8.66550       -0.97350        0.47680
C         -5.90920       -1.96900       -0.82290
C         -6.14740       -1.04630       -1.77690
C         -6.80830        0.23150       -1.61670
C         -6.71720        1.01070       -0.43350
N         -5.93130        0.77470        0.61590
S         -6.20270        1.88580        1.73810
N         -7.29940        2.75050        0.94280
C         -7.50950        2.20010       -0.25430
C         -8.35740        2.66870       -1.29200
C         -8.32740        1.94010       -2.46910
C         -7.58100        0.76950       -2.63000
C         -9.22350        3.82400       -1.17300
C         -9.38140        4.56960       -0.08350
H         13.74720       -2.30870       -0.02050
H         14.12520       -2.51000       -4.28430
H         14.73760       -3.30800       -2.06530
H         13.23640       -0.56600       -5.66980
H         11.10960        0.25970       -6.37440
H          8.26610       -2.14600       -2.40660
H         10.31130       -2.10720       -3.69370
H          5.66810        0.63140       -2.57460
H          6.49180       -1.99220       -1.20570
H          1.71180        0.58140       -0.31840
H          3.78340        0.66280       -1.55640
H          0.20280       -0.35610        1.17230
H          1.09280       -2.89310        2.61740
H         -2.56780       -3.95800        5.24520
H         -0.41510       -3.81050        4.13270
H         -4.65880       -2.68070        6.00850
H         -6.78410       -2.20510        5.09580
H         -8.46160       -0.84910        4.36070
H        -10.85230        1.30930        3.04800
H        -10.54660        0.26960        4.45320
H        -11.66040       -0.24230        3.16990
H        -10.26590        0.57610       -1.23090
H        -12.00770        0.45160       -0.87690
H        -11.03150       -1.02830       -1.05820
H         -8.72260       -1.05010       -0.59600
H         -5.28890       -2.81780       -1.08740
H         -5.82720       -1.26960       -2.78730
H         -8.93570        2.27490       -3.29820
H         -7.65380        0.23530       -3.56710
H         -9.78140        4.05820       -2.07270
H        -10.05250        5.41180       -0.07710
H         -8.84090        4.35830        0.82180
