250

C          1.86690       -3.31090       11.20880
C          1.53580       -2.02500       10.97780
C          0.68300       -1.86760        9.84510
C          0.12740       -0.68440        9.34020
C          0.47340        0.62990        9.89640
C          1.80420        1.02090       10.01010
C          2.14230        2.26370       10.50930
C          1.15900        3.15970       10.91360
S          1.45850        4.75770       11.59550
C          3.14900        5.16400       11.03580
C          3.22440        5.35890        9.53420
C         -0.17060        2.74900       10.80370
F         -1.14900        3.58360       11.20480
C         -0.52160        1.51620       10.30070
C         -0.73940       -0.81340        8.26690
C         -1.04720       -2.05530        7.65800
C         -0.46570       -3.23710        8.14480
C         -0.70360       -4.53460        7.50480
C          0.36990       -5.36040        7.18300
C          0.17840       -6.57420        6.55210
C         -1.09890       -7.00830        6.21740
S         -1.48920       -8.52870        5.41530
C          0.12220       -9.14620        4.81850
C          0.65750       -8.33430        3.65380
C         -2.16820       -6.18180        6.56820
C         -1.99140       -4.96980        7.19700
F         -3.42390       -6.58220        6.28080
C          0.38370       -3.10800        9.23590
S          1.17810       -4.41800       10.07110
C         -1.89130       -1.88750        6.52890
C         -2.21990       -0.58950        6.27680
S         -1.50670        0.51700        7.43540
C         -3.00730       -0.07550        5.20450
C         -3.15930        1.22680        4.83580
C         -3.95650        1.40030        3.67660
C         -4.23620        2.58900        2.98520
C         -3.70120        3.88590        3.41700
C         -2.34050        4.06360        3.65960
C         -1.85220        5.29900        4.02710
C         -2.69600        6.39670        4.18490
S         -1.95750        7.91970        4.70030
C         -2.84550        9.19490        3.73140
C         -2.74300        8.95000        2.23950
C         -4.05550        6.19590        3.96840
F         -4.94230        7.20030        4.14510
C         -4.55520        4.97250        3.57100
C         -5.00070        2.47480        1.83560
C         -5.51870        1.24510        1.35930
C         -5.25400        0.05860        2.06160
C         -5.73520       -1.25020        1.59680
C         -6.45200       -2.08630        2.45000
C         -6.88230       -3.32450        2.02160
C         -6.61550       -3.77550        0.73190
S         -7.23660       -5.36690        0.25890
C         -5.77310       -6.14870       -0.51660
C         -4.60470       -6.23470        0.44510
C         -5.91650       -2.92270       -0.11530
C         -5.46950       -1.68610        0.30300
F         -5.64560       -3.28110       -1.39200
C         -4.46740        0.16950        3.19740
S         -3.89200       -1.17180        4.15620
C         -6.19940        1.39880        0.12390
C         -6.13810        2.66360       -0.38200
S         -5.33950        3.77470        0.72690
C         -6.46020        3.13110       -1.69190
S         -6.85640        4.79490       -1.96340
C         -6.67510        4.64680       -3.67680
C         -6.38780        3.33100       -4.02910
C         -6.26680        2.46220       -2.90150
C         -5.86970        1.12330       -3.11940
C         -5.59840        0.66690       -4.37460
C         -5.14430       -0.73520       -4.62390
C         -5.74170        1.54390       -5.50010
O         -5.41610        0.98310       -6.69720
C         -5.42040        1.80000       -7.84010
C         -6.15530        2.83520       -5.33230
C         -6.68640        5.79850       -4.54580
C         -5.69200        6.06640       -5.41190
C         -4.43350        5.36110       -5.45390
C         -3.64040        5.11390       -6.53400
C         -2.47570        4.35320       -6.23680
C         -1.50180        3.84740       -7.11720
C         -1.52500        4.17380       -8.54840
C         -1.60800        5.49700       -8.97210
C         -1.60950        5.82050      -10.31520
C         -1.54300        4.82770      -11.28610
S         -1.51780        5.09400      -13.02760
C         -2.03740        6.83330      -13.22420
C         -3.50560        7.03660      -12.90160
C         -1.45710        3.50540      -10.84590
F         -1.38920        2.51630      -11.75970
C         -1.44380        3.17020       -9.51120
C         -0.52650        3.02790       -6.56680
C         -0.46920        2.72530       -5.18480
C         -1.42970        3.23980       -4.30420
C         -1.42990        2.84150       -2.88730
C         -0.38190        3.16600       -2.03080
C         -0.37040        2.70400       -0.73000
C         -1.38830        1.88650       -0.24870
S         -1.28990        1.30330        1.42420
C         -1.60240       -0.49110        1.24380
C         -0.59220       -1.15210        0.32830
C         -2.43900        1.59450       -1.11000
C         -2.47470        2.06120       -2.40740
F         -3.45370        0.80060       -0.70850
C         -2.41200        4.03690       -4.85710
S         -3.72920        4.73550       -3.97090
C          0.57770        1.83560       -4.87100
C          1.32820        1.44750       -5.94860
S          0.76720        2.21940       -7.42480
C          2.37470        0.49220       -5.88200
S          2.67980       -0.22440       -4.33160
C          3.89790       -1.29360       -4.95210
C          4.07460       -1.07640       -6.32540
C          3.21380       -0.06350       -6.85190
C          3.28740        0.25390       -8.22420
C          4.16470       -0.39290       -9.04350
C          4.26480       -0.07770      -10.50030
C          5.02300       -1.40630       -8.50900
O          5.85330       -1.97570       -9.42210
C          6.73120       -2.98780       -8.99780
C          4.97710       -1.73880       -7.18000
C          4.50850       -2.23860       -4.09590
C          4.22980       -2.29950       -2.76960
C          4.70580       -3.25120       -1.83070
C          5.48250       -4.36620       -1.98900
C          5.68180       -5.09980       -0.79270
C          6.37170       -6.31160       -0.61830
C          7.10830       -6.93830       -1.72180
C          8.03450       -6.20970       -2.46290
C          8.74790       -6.79490       -3.49090
C          8.55960       -8.13350       -3.81600
S          9.37970       -8.99300       -5.11850
C         10.84430       -7.96200       -5.47660
C         11.84890       -7.97580       -4.34040
C          7.61950       -8.84870       -3.07190
F          7.39670      -10.14320       -3.37170
C          6.90660       -8.27910       -2.04140
C          6.33300       -6.87660        0.64930
C          5.66890       -6.27900        1.74730
C          4.99870       -5.05980        1.58040
C          4.29870       -4.39240        2.68680
C          3.30950       -5.04460        3.41900
C          2.63430       -4.38660        4.42630
C          2.93740       -3.06880        4.75860
S          2.06260       -2.32210        6.10910
C          1.60090       -0.68400        5.43840
C          0.74000       -0.81030        4.19850
C          3.94940       -2.44090        4.03960
C          4.60760       -3.07450        3.00570
F          4.32630       -1.17970        4.33900
C          5.02150       -4.50370        0.31170
S          4.19530       -3.04650       -0.16040
C          5.83600       -7.03840        2.94320
C          6.57850       -8.14850        2.75910
S          7.12860       -8.35450        1.13080
H          2.48680       -3.70270       11.99140
H          1.85880       -1.20300       11.59060
H          2.58420        0.34820        9.68570
H          3.18460        2.52800       10.58710
H          3.83360        4.39520       11.39160
H          3.37040        6.09340       11.56020
H          2.53730        6.14210        9.22310
H          4.23410        5.64690        9.24820
H          2.96160        4.44380        9.00780
H         -1.56510        1.24990       10.24220
H          1.37340       -5.03520        7.41020
H          1.03960       -7.18280        6.32820
H          0.81550       -9.18060        5.65780
H         -0.09580      -10.16830        4.50890
H         -0.04330       -8.36460        2.82270
H          0.80480       -7.29410        3.93680
H          1.60920       -8.74610        3.32180
H         -2.85830       -4.38540        7.46260
H         -2.22290       -2.69680        5.90280
H         -2.70480        2.03930        5.37400
H         -1.66190        3.23740        3.51540
H         -0.79610        5.43930        4.19810
H         -3.87900        9.23990        4.06730
H         -2.33990       10.11820        4.01460
H         -3.21440        9.76980        1.70120
H         -3.24400        8.02460        1.96110
H         -1.70080        8.88320        1.93380
H         -5.61830        4.87360        3.41450
H         -6.67790       -1.75910        3.45310
H         -7.43520       -3.97070        2.68500
H         -5.51810       -5.60040       -1.42110
H         -6.13100       -7.14060       -0.79180
H         -4.89180       -6.76760        1.34910
H         -4.26040       -5.24070        0.72660
H         -3.77940       -6.76490       -0.02670
H         -4.90570       -1.07520       -0.38320
H         -6.71810        0.59370       -0.36180
H         -5.75100        0.46230       -2.27750
H         -5.10780       -1.30410       -3.69900
H         -4.15660       -0.73270       -5.08390
H         -5.82180       -1.22760       -5.31910
H         -4.74110        2.65230       -7.72390
H         -5.07260        1.16940       -8.65680
H         -6.42570        2.16750       -8.07050
H         -6.28540        3.50560       -6.16580
H         -7.53410        6.46770       -4.47870
H         -5.80120        6.87880       -6.11830
H         -3.90480        5.41840       -7.53210
H         -1.64420        6.28800       -8.23790
H         -1.65140        6.85970      -10.59850
H         -1.38530        7.46440      -12.62170
H         -1.84080        7.03860      -14.27640
H         -3.71810        6.78030      -11.86580
H         -3.78080        8.07660      -13.06640
H         -4.11990        6.40830      -13.54220
H         -1.38930        2.13010       -9.23190
H          0.42950        3.78020       -2.39110
H          0.44320        2.95420       -0.06700
H         -1.51700       -0.86890        2.26190
H         -2.62430       -0.63680        0.90100
H         -0.67810       -0.76840       -0.68710
H          0.42090       -0.96990        0.68080
H         -0.76580       -2.22610        0.30680
H         -3.30940        1.79390       -3.03760
H          0.75670        1.47280       -3.87450
H          2.64230        1.01910       -8.62660
H          5.27340        0.25380      -10.74240
H          4.06940       -0.97230      -11.08940
H          3.55530        0.69660      -10.77760
H          6.18760       -3.85050       -8.59900
H          7.28410       -3.29020       -9.88570
H          7.43320       -2.61960       -8.24230
H          5.61950       -2.49860       -6.76610
H          5.20100       -2.93740       -4.54230
H          3.55090       -1.56030       -2.36220
H          5.87210       -4.68050       -2.94000
H          8.21490       -5.17380       -2.21680
H          9.45400       -6.19460       -4.04200
H         11.26370       -8.42220       -6.37120
H         10.51380       -6.95510       -5.72910
H         11.41650       -7.56400       -3.43090
H         12.72150       -7.38390       -4.61020
H         12.16890       -8.99470       -4.13630
H          6.18830       -8.87940       -1.50600
H          3.05030       -6.06300        3.17100
H          1.84900       -4.88120        4.97660
H          1.05200       -0.22070        6.25750
H          2.50510       -0.10940        5.25160
H          0.39180        0.17380        3.88940
H          1.30510       -1.25190        3.37890
H         -0.12390       -1.44060        4.40250
H          5.38140       -2.54080        2.47630
H          5.42400       -6.74180        3.89080
H          6.85340       -8.88680        3.48690
