
  xtb     03032200273D
 energy: -322.418694501754 gnorm: 0.000210532103 xtb: 6.4.1 (unknown)
182199  0     0  0            999 V2000
    8.1659    1.2745    1.6826 C   0  0  0  0  0  0  0  0  0  0  0  0
    9.5040    0.2909    2.0824 S   0  0  0  0  0  0  0  0  0  0  0  0
    8.4975   -1.0870    2.3972 C   0  0  0  0  0  0  0  0  0  0  0  0
    7.1666   -0.7839    2.1241 C   0  0  0  0  0  0  0  0  0  0  0  0
    6.9775    0.5834    1.7430 C   0  0  0  0  0  0  0  0  0  0  0  0
    5.6629    1.0544    1.5002 C   0  0  0  0  0  0  0  0  0  0  0  0
    4.5990    0.2108    1.5774 C   0  0  0  0  0  0  0  0  0  0  0  0
    3.1972    0.6733    1.3470 C   0  0  0  0  0  0  0  0  0  0  0  0
    4.8116   -1.1821    1.8582 C   0  0  0  0  0  0  0  0  0  0  0  0
    3.6857   -1.9482    1.8136 O   0  0  0  0  0  0  0  0  0  0  0  0
    3.8228   -3.3375    1.9774 C   0  0  0  0  0  0  0  0  0  0  0  0
    6.0603   -1.6630    2.1310 C   0  0  0  0  0  0  0  0  0  0  0  0
    9.0506   -2.3207    2.8780 C   0  0  0  0  0  0  0  0  0  0  0  0
    8.4671   -3.0976    3.8151 C   0  0  0  0  0  0  0  0  0  0  0  0
    7.3571   -2.7085    4.6364 C   0  0  0  0  0  0  0  0  0  0  0  0
    7.1925   -1.0921    5.2263 S   0  0  0  0  0  0  0  0  0  0  0  0
    5.6836   -1.4263    6.0235 C   0  0  0  0  0  0  0  0  0  0  0  0
    5.3571   -2.7788    5.8844 C   0  0  0  0  0  0  0  0  0  0  0  0
    6.3067   -3.5008    5.0987 C   0  0  0  0  0  0  0  0  0  0  0  0
    6.0772   -4.8667    4.8209 C   0  0  0  0  0  0  0  0  0  0  0  0
    4.9743   -5.5027    5.3090 C   0  0  0  0  0  0  0  0  0  0  0  0
    4.6875   -6.9401    5.0140 C   0  0  0  0  0  0  0  0  0  0  0  0
    4.0591   -4.7877    6.1453 C   0  0  0  0  0  0  0  0  0  0  0  0
    3.0080   -5.5294    6.5939 O   0  0  0  0  0  0  0  0  0  0  0  0
    2.0248   -4.8970    7.3741 C   0  0  0  0  0  0  0  0  0  0  0  0
    4.2584   -3.4656    6.4423 C   0  0  0  0  0  0  0  0  0  0  0  0
    5.0572   -0.3676    6.7368 C   0  0  0  0  0  0  0  0  0  0  0  0
    3.7338   -0.1619    6.9666 C   0  0  0  0  0  0  0  0  0  0  0  0
    2.6248   -0.7925    6.3473 C   0  0  0  0  0  0  0  0  0  0  0  0
    2.6977   -1.4970    4.7663 S   0  0  0  0  0  0  0  0  0  0  0  0
    1.0361   -2.0159    4.8188 C   0  0  0  0  0  0  0  0  0  0  0  0
    0.4206   -1.5690    6.0008 C   0  0  0  0  0  0  0  0  0  0  0  0
    1.3195   -0.8740    6.8598 C   0  0  0  0  0  0  0  0  0  0  0  0
    0.8525   -0.3899    8.0977 C   0  0  0  0  0  0  0  0  0  0  0  0
   -0.4581   -0.5294    8.4541 C   0  0  0  0  0  0  0  0  0  0  0  0
   -0.9866   -0.0187    9.7563 C   0  0  0  0  0  0  0  0  0  0  0  0
   -1.3696   -1.1563    7.5516 C   0  0  0  0  0  0  0  0  0  0  0  0
   -2.6624   -1.1891    7.9846 O   0  0  0  0  0  0  0  0  0  0  0  0
   -3.6364   -1.7524    7.1434 C   0  0  0  0  0  0  0  0  0  0  0  0
   -0.9387   -1.6694    6.3551 C   0  0  0  0  0  0  0  0  0  0  0  0
    0.5410   -2.8263    3.7786 C   0  0  0  0  0  0  0  0  0  0  0  0
   -0.4600   -3.7432    3.9099 C   0  0  0  0  0  0  0  0  0  0  0  0
   -0.9573   -4.5537    2.8753 C   0  0  0  0  0  0  0  0  0  0  0  0
   -0.5321   -4.3119    1.2105 S   0  0  0  0  0  0  0  0  0  0  0  0
   -1.4906   -5.6565    0.6644 C   0  0  0  0  0  0  0  0  0  0  0  0
   -2.1132   -6.2802    1.7604 C   0  0  0  0  0  0  0  0  0  0  0  0
   -1.8343   -5.6462    3.0024 C   0  0  0  0  0  0  0  0  0  0  0  0
   -2.4162   -6.1519    4.1797 C   0  0  0  0  0  0  0  0  0  0  0  0
   -3.2459   -7.2359    4.1408 C   0  0  0  0  0  0  0  0  0  0  0  0
   -3.8798   -7.7970    5.3736 C   0  0  0  0  0  0  0  0  0  0  0  0
   -3.5278   -7.8627    2.8892 C   0  0  0  0  0  0  0  0  0  0  0  0
   -4.3702   -8.9303    2.9724 O   0  0  0  0  0  0  0  0  0  0  0  0
   -4.7069   -9.6146    1.7923 C   0  0  0  0  0  0  0  0  0  0  0  0
   -2.9773   -7.3918    1.7248 C   0  0  0  0  0  0  0  0  0  0  0  0
   -1.5119   -6.1352   -0.6660 C   0  0  0  0  0  0  0  0  0  0  0  0
   -1.2901   -5.5266   -1.8617 C   0  0  0  0  0  0  0  0  0  0  0  0
   -1.2139   -4.1495   -2.2098 C   0  0  0  0  0  0  0  0  0  0  0  0
   -1.5279   -3.0039   -1.5294 C   0  0  0  0  0  0  0  0  0  0  0  0
   -1.4833   -1.8318   -2.3174 C   0  0  0  0  0  0  0  0  0  0  0  0
   -1.8107   -0.5181   -1.9298 C   0  0  0  0  0  0  0  0  0  0  0  0
   -2.0847   -0.1866   -0.5421 C   0  0  0  0  0  0  0  0  0  0  0  0
   -3.5292    0.6534   -0.0647 S   0  0  0  0  0  0  0  0  0  0  0  0
   -3.0518    0.6843    1.5991 C   0  0  0  0  0  0  0  0  0  0  0  0
   -3.8881    1.3689    2.6233 C   0  0  0  0  0  0  0  0  0  0  0  0
   -3.7729    2.8891    2.4925 C   0  0  0  0  0  0  0  0  0  0  0  0
   -1.8398    0.0817    1.7569 C   0  0  0  0  0  0  0  0  0  0  0  0
   -1.0301   -0.0622    3.2652 Cl  0  0  0  0  0  0  0  0  0  0  0  0
   -1.2903   -0.4190    0.5462 C   0  0  0  0  0  0  0  0  0  0  0  0
    0.2544   -1.1562    0.4596 Cl  0  0  0  0  0  0  0  0  0  0  0  0
   -1.8393    0.4477   -2.9263 C   0  0  0  0  0  0  0  0  0  0  0  0
   -1.4968    0.1677   -4.2702 C   0  0  0  0  0  0  0  0  0  0  0  0
   -1.1461   -1.1387   -4.6582 C   0  0  0  0  0  0  0  0  0  0  0  0
   -0.8513   -1.4342   -6.0505 C   0  0  0  0  0  0  0  0  0  0  0  0
    0.6171   -2.2353   -6.5220 S   0  0  0  0  0  0  0  0  0  0  0  0
    0.2268   -2.1321   -8.2051 C   0  0  0  0  0  0  0  0  0  0  0  0
    1.1207   -2.7145   -9.2434 C   0  0  0  0  0  0  0  0  0  0  0  0
    0.8367   -4.2065   -9.4327 C   0  0  0  0  0  0  0  0  0  0  0  0
   -0.9828   -1.5275   -8.3742 C   0  0  0  0  0  0  0  0  0  0  0  0
   -1.5956   -1.1285   -7.1572 C   0  0  0  0  0  0  0  0  0  0  0  0
   -3.1565   -0.4105   -7.1136 Cl  0  0  0  0  0  0  0  0  0  0  0  0
   -1.7080   -1.2459   -9.9027 Cl  0  0  0  0  0  0  0  0  0  0  0  0
   -1.1389   -2.1060   -3.6665 C   0  0  0  0  0  0  0  0  0  0  0  0
   -0.8286   -3.7986   -3.8961 S   0  0  0  0  0  0  0  0  0  0  0  0
   -1.5571    1.3216   -5.0817 C   0  0  0  0  0  0  0  0  0  0  0  0
   -1.9818    2.4361   -4.4181 C   0  0  0  0  0  0  0  0  0  0  0  0
   -2.2560    2.1280   -2.7173 S   0  0  0  0  0  0  0  0  0  0  0  0
   -2.2460    3.6955   -5.0361 C   0  0  0  0  0  0  0  0  0  0  0  0
   -2.4244    3.8741   -6.3765 C   0  0  0  0  0  0  0  0  0  0  0  0
   -2.6643    5.2179   -6.7427 C   0  0  0  0  0  0  0  0  0  0  0  0
   -2.8414    5.7314   -8.0373 C   0  0  0  0  0  0  0  0  0  0  0  0
   -2.7151    4.8507   -9.1868 C   0  0  0  0  0  0  0  0  0  0  0  0
   -3.9766    4.6937  -10.3719 S   0  0  0  0  0  0  0  0  0  0  0  0
   -3.1148    3.4710  -11.2415 C   0  0  0  0  0  0  0  0  0  0  0  0
   -3.7091    2.7909  -12.4251 C   0  0  0  0  0  0  0  0  0  0  0  0
   -4.4298    1.5065  -12.0064 C   0  0  0  0  0  0  0  0  0  0  0  0
   -1.9189    3.2133  -10.6397 C   0  0  0  0  0  0  0  0  0  0  0  0
   -0.7905    2.0549  -11.2118 Cl  0  0  0  0  0  0  0  0  0  0  0  0
   -1.6872    3.9955   -9.4782 C   0  0  0  0  0  0  0  0  0  0  0  0
   -0.2203    3.9079   -8.5887 Cl  0  0  0  0  0  0  0  0  0  0  0  0
   -3.1244    7.0863   -8.1399 C   0  0  0  0  0  0  0  0  0  0  0  0
   -3.1980    7.9409   -7.0141 C   0  0  0  0  0  0  0  0  0  0  0  0
   -2.9946    7.4294   -5.7217 C   0  0  0  0  0  0  0  0  0  0  0  0
   -3.0567    8.2840   -4.5457 C   0  0  0  0  0  0  0  0  0  0  0  0
   -2.0502    9.6941   -4.3959 S   0  0  0  0  0  0  0  0  0  0  0  0
   -2.6723   10.0695   -2.8248 C   0  0  0  0  0  0  0  0  0  0  0  0
   -2.2309   11.2865   -2.0894 C   0  0  0  0  0  0  0  0  0  0  0  0
   -3.0136   12.5180   -2.5513 C   0  0  0  0  0  0  0  0  0  0  0  0
   -3.6118    9.1534   -2.4584 C   0  0  0  0  0  0  0  0  0  0  0  0
   -3.8276    8.1359   -3.4269 C   0  0  0  0  0  0  0  0  0  0  0  0
   -5.0035    6.9063   -3.2212 Cl  0  0  0  0  0  0  0  0  0  0  0  0
   -4.4640    9.2004   -0.9701 Cl  0  0  0  0  0  0  0  0  0  0  0  0
   -2.7287    6.0701   -5.6137 C   0  0  0  0  0  0  0  0  0  0  0  0
   -2.4084    5.1907   -4.1438 S   0  0  0  0  0  0  0  0  0  0  0  0
   -3.5040    9.2803   -7.3958 C   0  0  0  0  0  0  0  0  0  0  0  0
   -3.6349    9.4285   -8.7296 C   0  0  0  0  0  0  0  0  0  0  0  0
   -3.4004    7.9626   -9.6185 S   0  0  0  0  0  0  0  0  0  0  0  0
    8.3219    2.3047    1.4320 H   0  0  0  0  0  0  0  0  0  0  0  0
    5.5197    2.0959    1.2528 H   0  0  0  0  0  0  0  0  0  0  0  0
    3.1599    1.7509    1.2116 H   0  0  0  0  0  0  0  0  0  0  0  0
    2.5699    0.3931    2.1915 H   0  0  0  0  0  0  0  0  0  0  0  0
    2.7853    0.1892    0.4629 H   0  0  0  0  0  0  0  0  0  0  0  0
    4.1475   -3.5936    2.9918 H   0  0  0  0  0  0  0  0  0  0  0  0
    4.5283   -3.7578    1.2534 H   0  0  0  0  0  0  0  0  0  0  0  0
    2.8358   -3.7612    1.7963 H   0  0  0  0  0  0  0  0  0  0  0  0
    6.2314   -2.7049    2.3424 H   0  0  0  0  0  0  0  0  0  0  0  0
    9.9891   -2.6367    2.4408 H   0  0  0  0  0  0  0  0  0  0  0  0
    8.8692   -4.0852    4.0044 H   0  0  0  0  0  0  0  0  0  0  0  0
    6.7853   -5.4049    4.2081 H   0  0  0  0  0  0  0  0  0  0  0  0
    4.6361   -7.5088    5.9411 H   0  0  0  0  0  0  0  0  0  0  0  0
    5.4562   -7.3658    4.3747 H   0  0  0  0  0  0  0  0  0  0  0  0
    3.7197   -7.0332    4.5234 H   0  0  0  0  0  0  0  0  0  0  0  0
    1.2783   -5.6621    7.5824 H   0  0  0  0  0  0  0  0  0  0  0  0
    2.4345   -4.5260    8.3193 H   0  0  0  0  0  0  0  0  0  0  0  0
    1.5541   -4.0678    6.8359 H   0  0  0  0  0  0  0  0  0  0  0  0
    3.5984   -2.9338    7.1062 H   0  0  0  0  0  0  0  0  0  0  0  0
    5.7441    0.3656    7.1434 H   0  0  0  0  0  0  0  0  0  0  0  0
    3.4734    0.6099    7.6808 H   0  0  0  0  0  0  0  0  0  0  0  0
    1.5388    0.1078    8.7662 H   0  0  0  0  0  0  0  0  0  0  0  0
   -1.7655    0.7212    9.5787 H   0  0  0  0  0  0  0  0  0  0  0  0
   -0.1932    0.4316   10.3466 H   0  0  0  0  0  0  0  0  0  0  0  0
   -1.4374   -0.8327   10.3219 H   0  0  0  0  0  0  0  0  0  0  0  0
   -3.4457   -2.8154    6.9607 H   0  0  0  0  0  0  0  0  0  0  0  0
   -3.6947   -1.2274    6.1844 H   0  0  0  0  0  0  0  0  0  0  0  0
   -4.5823   -1.6435    7.6718 H   0  0  0  0  0  0  0  0  0  0  0  0
   -1.6277   -2.1109    5.6558 H   0  0  0  0  0  0  0  0  0  0  0  0
    1.0526   -2.7499    2.8282 H   0  0  0  0  0  0  0  0  0  0  0  0
   -0.8776   -3.9276    4.8889 H   0  0  0  0  0  0  0  0  0  0  0  0
   -2.2038   -5.6785    5.1267 H   0  0  0  0  0  0  0  0  0  0  0  0
   -3.5816   -7.2339    6.2541 H   0  0  0  0  0  0  0  0  0  0  0  0
   -4.9645   -7.7712    5.2814 H   0  0  0  0  0  0  0  0  0  0  0  0
   -3.5914   -8.8393    5.5005 H   0  0  0  0  0  0  0  0  0  0  0  0
   -5.3764  -10.4174    2.0972 H   0  0  0  0  0  0  0  0  0  0  0  0
   -3.8226  -10.0448    1.3106 H   0  0  0  0  0  0  0  0  0  0  0  0
   -5.2250   -8.9617    1.0822 H   0  0  0  0  0  0  0  0  0  0  0  0
   -3.1963   -7.8522    0.7756 H   0  0  0  0  0  0  0  0  0  0  0  0
   -1.7346   -7.1954   -0.7281 H   0  0  0  0  0  0  0  0  0  0  0  0
   -1.2411   -6.1835   -2.7218 H   0  0  0  0  0  0  0  0  0  0  0  0
   -1.8504   -2.9948   -0.5063 H   0  0  0  0  0  0  0  0  0  0  0  0
   -4.9322    1.0738    2.4996 H   0  0  0  0  0  0  0  0  0  0  0  0
   -3.5501    1.0570    3.6131 H   0  0  0  0  0  0  0  0  0  0  0  0
   -4.1101    3.2085    1.5094 H   0  0  0  0  0  0  0  0  0  0  0  0
   -2.7395    3.2008    2.6226 H   0  0  0  0  0  0  0  0  0  0  0  0
   -4.3825    3.3775    3.2480 H   0  0  0  0  0  0  0  0  0  0  0  0
    0.9553   -2.1872  -10.1850 H   0  0  0  0  0  0  0  0  0  0  0  0
    2.1611   -2.5780   -8.9438 H   0  0  0  0  0  0  0  0  0  0  0  0
   -0.1940   -4.3573   -9.7437 H   0  0  0  0  0  0  0  0  0  0  0  0
    1.0004   -4.7415   -8.5003 H   0  0  0  0  0  0  0  0  0  0  0  0
    1.4943   -4.6185  -10.1935 H   0  0  0  0  0  0  0  0  0  0  0  0
   -1.2734    1.3329   -6.1166 H   0  0  0  0  0  0  0  0  0  0  0  0
   -2.4236    3.0625   -7.0786 H   0  0  0  0  0  0  0  0  0  0  0  0
   -4.4141    3.4647  -12.9140 H   0  0  0  0  0  0  0  0  0  0  0  0
   -2.9110    2.5456  -13.1290 H   0  0  0  0  0  0  0  0  0  0  0  0
   -5.2316    1.7336  -11.3079 H   0  0  0  0  0  0  0  0  0  0  0  0
   -3.7342    0.8236  -11.5256 H   0  0  0  0  0  0  0  0  0  0  0  0
   -4.8538    1.0148  -12.8779 H   0  0  0  0  0  0  0  0  0  0  0  0
   -1.1653   11.4484   -2.2608 H   0  0  0  0  0  0  0  0  0  0  0  0
   -2.3946   11.1278   -1.0221 H   0  0  0  0  0  0  0  0  0  0  0  0
   -4.0772   12.3749   -2.3776 H   0  0  0  0  0  0  0  0  0  0  0  0
   -2.6860   13.3965   -2.0023 H   0  0  0  0  0  0  0  0  0  0  0  0
   -2.8538   12.6899   -3.6131 H   0  0  0  0  0  0  0  0  0  0  0  0
   -3.6214   10.0843   -6.6928 H   0  0  0  0  0  0  0  0  0  0  0  0
   -3.8623   10.3246   -9.2731 H   0  0  0  0  0  0  0  0  0  0  0  0
  1  2  1  0  0  0  0
  2  3  1  0  0  0  0
  3  4  2  0  0  0  0
  4  5  1  0  0  0  0
  5  6  1  0  0  0  0
  6  7  2  0  0  0  0
  7  8  1  0  0  0  0
  7  9  1  0  0  0  0
  9 10  1  0  0  0  0
 10 11  1  0  0  0  0
  9 12  2  0  0  0  0
  3 13  1  0  0  0  0
 13 14  2  0  0  0  0
 14 15  1  0  0  0  0
 15 16  1  0  0  0  0
 16 17  1  0  0  0  0
 17 18  2  0  0  0  0
 18 19  1  0  0  0  0
 19 20  1  0  0  0  0
 20 21  2  0  0  0  0
 21 22  1  0  0  0  0
 21 23  1  0  0  0  0
 23 24  1  0  0  0  0
 24 25  1  0  0  0  0
 23 26  2  0  0  0  0
 17 27  1  0  0  0  0
 27 28  2  0  0  0  0
 28 29  1  0  0  0  0
 29 30  1  0  0  0  0
 30 31  1  0  0  0  0
 31 32  2  0  0  0  0
 32 33  1  0  0  0  0
 33 34  1  0  0  0  0
 34 35  2  0  0  0  0
 35 36  1  0  0  0  0
 35 37  1  0  0  0  0
 37 38  1  0  0  0  0
 38 39  1  0  0  0  0
 37 40  2  0  0  0  0
 31 41  1  0  0  0  0
 41 42  2  0  0  0  0
 42 43  1  0  0  0  0
 43 44  1  0  0  0  0
 44 45  1  0  0  0  0
 45 46  2  0  0  0  0
 46 47  1  0  0  0  0
 47 48  1  0  0  0  0
 48 49  2  0  0  0  0
 49 50  1  0  0  0  0
 49 51  1  0  0  0  0
 51 52  1  0  0  0  0
 52 53  1  0  0  0  0
 51 54  2  0  0  0  0
 45 55  1  0  0  0  0
 55 56  2  0  0  0  0
 56 57  1  0  0  0  0
 57 58  2  0  0  0  0
 58 59  1  0  0  0  0
 59 60  2  0  0  0  0
 60 61  1  0  0  0  0
 61 62  1  0  0  0  0
 62 63  1  0  0  0  0
 63 64  1  0  0  0  0
 64 65  1  0  0  0  0
 63 66  2  0  0  0  0
 66 67  1  0  0  0  0
 66 68  1  0  0  0  0
 68 69  1  0  0  0  0
 60 70  1  0  0  0  0
 70 71  2  0  0  0  0
 71 72  1  0  0  0  0
 72 73  1  0  0  0  0
 73 74  1  0  0  0  0
 74 75  1  0  0  0  0
 75 76  1  0  0  0  0
 76 77  1  0  0  0  0
 75 78  2  0  0  0  0
 78 79  1  0  0  0  0
 79 80  1  0  0  0  0
 78 81  1  0  0  0  0
 72 82  2  0  0  0  0
 82 83  1  0  0  0  0
 71 84  1  0  0  0  0
 84 85  2  0  0  0  0
 85 86  1  0  0  0  0
 85 87  1  0  0  0  0
 87 88  2  0  0  0  0
 88 89  1  0  0  0  0
 89 90  2  0  0  0  0
 90 91  1  0  0  0  0
 91 92  1  0  0  0  0
 92 93  1  0  0  0  0
 93 94  1  0  0  0  0
 94 95  1  0  0  0  0
 93 96  2  0  0  0  0
 96 97  1  0  0  0  0
 96 98  1  0  0  0  0
 98 99  1  0  0  0  0
 90100  1  0  0  0  0
100101  2  0  0  0  0
101102  1  0  0  0  0
102103  1  0  0  0  0
103104  1  0  0  0  0
104105  1  0  0  0  0
105106  1  0  0  0  0
106107  1  0  0  0  0
105108  2  0  0  0  0
108109  1  0  0  0  0
109110  1  0  0  0  0
108111  1  0  0  0  0
102112  2  0  0  0  0
112113  1  0  0  0  0
101114  1  0  0  0  0
114115  2  0  0  0  0
115116  1  0  0  0  0
  5  1  2  0  0  0  0
 19 15  2  0  0  0  0
 33 29  2  0  0  0  0
 47 43  2  0  0  0  0
 83 57  1  0  0  0  0
113 87  1  0  0  0  0
 12  4  1  0  0  0  0
 26 18  1  0  0  0  0
 40 32  1  0  0  0  0
 54 46  1  0  0  0  0
 82 59  1  0  0  0  0
112 89  1  0  0  0  0
 68 61  2  0  0  0  0
 86 70  1  0  0  0  0
 98 91  2  0  0  0  0
116100  1  0  0  0  0
 79 73  2  0  0  0  0
109103  2  0  0  0  0
  1117  1  0  0  0  0
  6118  1  0  0  0  0
  8119  1  0  0  0  0
  8120  1  0  0  0  0
  8121  1  0  0  0  0
 11122  1  0  0  0  0
 11123  1  0  0  0  0
 11124  1  0  0  0  0
 12125  1  0  0  0  0
 13126  1  0  0  0  0
 14127  1  0  0  0  0
 20128  1  0  0  0  0
 22129  1  0  0  0  0
 22130  1  0  0  0  0
 22131  1  0  0  0  0
 25132  1  0  0  0  0
 25133  1  0  0  0  0
 25134  1  0  0  0  0
 26135  1  0  0  0  0
 27136  1  0  0  0  0
 28137  1  0  0  0  0
 34138  1  0  0  0  0
 36139  1  0  0  0  0
 36140  1  0  0  0  0
 36141  1  0  0  0  0
 39142  1  0  0  0  0
 39143  1  0  0  0  0
 39144  1  0  0  0  0
 40145  1  0  0  0  0
 41146  1  0  0  0  0
 42147  1  0  0  0  0
 48148  1  0  0  0  0
 50149  1  0  0  0  0
 50150  1  0  0  0  0
 50151  1  0  0  0  0
 53152  1  0  0  0  0
 53153  1  0  0  0  0
 53154  1  0  0  0  0
 54155  1  0  0  0  0
 55156  1  0  0  0  0
 56157  1  0  0  0  0
 58158  1  0  0  0  0
 64159  1  0  0  0  0
 64160  1  0  0  0  0
 65161  1  0  0  0  0
 65162  1  0  0  0  0
 65163  1  0  0  0  0
 76164  1  0  0  0  0
 76165  1  0  0  0  0
 77166  1  0  0  0  0
 77167  1  0  0  0  0
 77168  1  0  0  0  0
 84169  1  0  0  0  0
 88170  1  0  0  0  0
 94171  1  0  0  0  0
 94172  1  0  0  0  0
 95173  1  0  0  0  0
 95174  1  0  0  0  0
 95175  1  0  0  0  0
106176  1  0  0  0  0
106177  1  0  0  0  0
107178  1  0  0  0  0
107179  1  0  0  0  0
107180  1  0  0  0  0
114181  1  0  0  0  0
115182  1  0  0  0  0
M  END
