94

C          2.05090        2.83740        0.45590
S          0.75050        1.77540        0.18120
C          0.10010        2.01060        1.77620
C          0.91240        2.90300        2.48990
C          2.02280        3.37790        1.72290
C          2.94630        4.27620        2.30860
C          2.79460        4.67570        3.60030
C          3.75780        5.60540        4.26560
C          1.68070        4.19540        4.36490
O          1.64670        4.65190        5.64680
C          0.58090        4.25790        6.47490
C          0.75630        3.34410        3.81890
C         -0.98680        1.27080        2.30820
C         -1.86330        0.45110        1.67830
C         -2.02890        0.28930        0.27210
S         -2.38430       -1.28870       -0.40560
C         -2.33040       -0.73990       -2.07490
C         -2.14400        0.64110       -2.08370
C         -1.98560        1.18360       -0.77370
O         -1.77270        2.51350       -0.82220
C         -1.76160        2.83530       -2.15340
C         -1.54280        4.16560       -2.53880
N         -1.36770        5.24540       -2.88540
C         -1.97220        1.74480       -2.95860
C         -2.22590       -1.72100       -3.08150
S         -1.72040       -3.28680       -2.54720
C         -1.34020       -3.83320       -4.14350
C         -1.72700       -2.86240       -5.08080
C         -2.24280       -1.67020       -4.48370
C         -2.73340       -0.64450       -5.31230
C         -2.66310       -0.74870       -6.67190
C         -3.18700        0.31750       -7.57810
C         -2.08020       -1.91310       -7.26280
O         -2.04140       -1.89250       -8.62060
C         -1.49270       -2.99560       -9.29830
C         -1.63470       -2.95020       -6.48340
C         -0.70610       -5.08670       -4.36830
C         -0.20580       -5.90870       -3.42170
C         -0.23290       -5.58800       -2.00390
S          0.80300       -4.36690       -1.27650
C         -0.07810       -4.34500        0.23430
C         -1.05180       -5.33660        0.21020
C         -1.10460       -6.02190       -1.04280
O         -2.09480       -6.93670       -1.05350
C         -2.67940       -6.85430        0.18610
C         -3.75220       -7.70420        0.49510
N         -4.62630       -8.39290        0.77400
C         -2.09420       -5.90650        0.98530
C          0.18640       -3.38900        1.23850
S          1.44690       -2.17570        1.08840
C          1.10860       -1.45620        2.64390
C          0.03330       -2.11250        3.23070
C         -0.46660       -3.18100        2.44100
O         -1.50480       -3.78120        3.05560
C         -1.68090       -3.10440        4.23530
C         -2.70640       -3.49780        5.10900
N         -3.53600       -3.79520        5.84290
C         -0.77660       -2.08620        4.39500
C          1.90470       -0.42450        3.18260
S          1.67420        0.17660        4.81450
C          3.00390        1.26500        4.73100
C          3.60830        1.19130        3.50330
C          2.98060        0.24340        2.63880
O          3.58630        0.20550        1.43790
C          4.60130        1.12770        1.51280
C          5.40310        1.35550        0.38260
N          6.06750        1.57900       -0.52470
C          4.67010        1.74570        2.73200
H          2.76850        3.01280       -0.32140
H          3.77290        4.63470        1.71320
H          4.54570        5.90150        3.57860
H          4.20120        5.12570        5.13700
H          3.23680        6.49420        4.61730
H          0.56110        3.17180        6.61680
H          0.75730        4.74330        7.43350
H         -0.38240        4.58850        6.07420
H         -0.08870        2.99610        4.38980
H         -1.07330        1.32810        3.38600
H         -2.49010       -0.18500        2.29060
H         -1.98050        1.75840       -4.02860
H         -3.20890        0.21150       -4.86150
H         -2.38000        0.71360       -8.19280
H         -3.63420        1.12780       -7.00880
H         -3.93140       -0.09950       -8.25440
H         -2.06260       -3.91010       -9.10480
H         -1.55440       -2.75110      -10.35750
H         -0.44490       -3.15450       -9.02390
H         -1.22640       -3.84540       -6.92230
H         -0.63030       -5.39520       -5.40180
H          0.20510       -6.86740       -3.70640
H         -2.38050       -5.66460        1.98720
H         -0.71090       -1.42100        5.23110
H          3.24740        1.87780        5.57350
H          5.37590        2.49340        3.02830
