224

C         -0.38410       -3.32730       12.18120
S         -0.26970       -1.95500       11.17960
C         -0.32030       -0.85390       12.52270
C         -0.41690       -1.57480       13.71970
C         -0.46000       -2.99160       13.51360
C         -0.56710       -3.86010       14.62660
C         -0.62910       -3.35870       15.88870
C         -0.73990       -4.23770       17.09310
C         -0.58960       -1.93810       16.09040
O         -0.66160       -1.56230       17.39700
C         -0.63240       -0.19260       17.70850
C         -0.49050       -1.07100       15.03530
C         -0.14360        0.55240       12.41560
C         -0.14970        1.37760       11.34380
C         -0.51610        1.10670        9.98600
C         -1.44950        0.25870        9.46830
C         -1.56420        0.31370        8.05730
C         -2.42120       -0.43690        7.23310
C         -3.25850       -1.51240        7.77490
C         -4.61240       -1.60320        7.46840
C         -5.38780       -2.63580        7.95940
C         -4.83270       -3.62460        8.76350
S         -5.71220       -4.98960        9.45120
C         -7.22350       -5.09720        8.43170
C         -6.92760       -5.51820        7.00490
C         -3.47550       -3.51570        9.07000
F         -2.90000       -4.45250        9.85350
C         -2.69310       -2.48980        8.59220
C         -2.39220       -0.14790        5.87810
C         -1.53300        0.82830        5.31810
C         -0.66100        1.56710        6.13670
C          0.24160        2.56270        5.54530
C         -0.24280        3.53260        4.66670
C          0.61620        4.41090        4.04440
C          1.99120        4.36860        4.27620
S          2.98520        5.53650        3.40240
C          4.59970        4.68580        3.17650
C          5.28900        5.24620        1.94750
C          2.45290        3.43800        5.20190
C          1.60430        2.54080        5.82000
F          3.76550        3.37270        5.52370
C         -0.69700        1.28340        7.49220
S          0.24790        2.06930        8.72580
C         -1.62970        0.86610        3.90700
C         -2.52240       -0.02430        3.38890
S         -3.30940       -0.97190        4.63630
C         -2.78100       -0.22400        2.00230
C         -3.55180       -1.15600        1.37440
C         -3.48430       -1.08810       -0.04270
C         -4.14940       -1.89020       -0.98910
C         -5.00160       -3.01120       -0.57760
C         -4.54390       -3.96010        0.33230
C         -5.33940       -5.01910        0.72490
C         -6.62420       -5.17050        0.21630
S         -7.76000       -6.44380        0.65710
C         -6.73510       -7.68260        1.52320
C         -5.80770       -8.42400        0.57920
C         -7.06790       -4.21440       -0.69950
F         -8.31150       -4.32610       -1.20800
C         -6.28520       -3.15560       -1.09970
C         -3.93080       -1.59110       -2.32530
C         -3.07670       -0.54490       -2.75940
C         -2.42600        0.27230       -1.81640
C         -1.58970        1.40780       -2.21500
C         -0.37340        1.67380       -1.58480
C          0.37730        2.77260       -1.93650
C         -0.03000        3.64970       -2.94350
S          1.05360        5.00380       -3.26250
C          0.73280        5.53570       -4.98000
C          1.07840        4.45920       -5.98920
C         -1.25470        3.38470       -3.54780
C         -2.02030        2.29000       -3.20110
F         -1.76510        4.20690       -4.49320
C         -2.63950       -0.03820       -0.48130
S         -1.95090        0.82300        0.86700
C         -2.92750       -0.53630       -4.16200
C         -3.63650       -1.51220       -4.81300
S         -4.55720       -2.49170       -3.68620
C         -3.53110       -1.80070       -6.19670
S         -2.41020       -0.84650       -7.11810
C         -2.40050       -1.96320       -8.43800
C         -3.36940       -2.94250       -8.24780
C         -4.00910       -2.86110       -6.96860
C         -4.96420       -3.83960       -6.62360
C         -5.26580       -4.85550       -7.48150
C         -6.27490       -5.90320       -7.14040
C         -4.60620       -4.93990       -8.75100
O         -4.98840       -6.00330       -9.51060
C         -4.41000       -6.16200      -10.78130
C         -3.67900       -4.00630       -9.12390
C         -1.35730       -1.88570       -9.43340
C         -0.06190       -1.68260       -9.11600
C          0.40060       -1.65150       -7.74950
S          1.32300       -0.32490       -7.13330
C          1.05240       -0.78500       -5.48090
C          0.32250       -1.98270       -5.42490
C          0.00250       -2.49700       -6.71350
C         -0.69100       -3.72420       -6.81820
C         -1.15450       -4.35430       -5.70360
C         -1.94230       -5.62180       -5.77620
C         -0.89590       -3.79040       -4.41300
O         -1.44260       -4.48620       -3.37850
C         -1.24250       -4.01760       -2.06960
C         -0.13930       -2.65680       -4.27620
C          1.33670        0.02140       -4.35220
C          2.17560        1.06170       -4.13680
C          3.24100        1.63710       -4.88360
C          3.89570        2.76710       -4.46890
C          5.02990        3.09960       -5.24340
C          5.91490        4.16810       -5.04270
C          5.64610        5.15610       -3.98590
C          6.49430        5.31760       -2.89450
C          6.16290        6.18970       -1.87920
C          5.00190        6.96240       -1.92680
S          4.72090        8.04860       -0.56140
C          2.90170        8.19220       -0.41440
C          2.23070        6.85790       -0.16450
C          4.20470        6.84190       -3.06080
F          3.11140        7.61760       -3.23910
C          4.49810        5.93500       -4.05870
C          7.01600        4.22780       -5.87820
C          7.23560        3.30610       -6.93120
C          6.32810        2.25780       -7.15510
C          6.50210        1.31280       -8.26560
C          6.44440       -0.06380       -8.05790
C          6.61160       -0.94030       -9.10870
C          6.82670       -0.48290      -10.40640
S          6.98720       -1.69380      -11.68880
C          8.37320       -1.05890      -12.70390
C          9.63590       -0.87380      -11.88670
C          6.84670        0.89380      -10.60540
C          6.70540        1.78270       -9.55940
F          7.00460        1.41200      -11.84460
C          5.25540        2.16270       -6.28090
S          4.00980        0.93650       -6.29710
C          8.45000        3.59270       -7.62360
C          9.09290        4.67350       -7.13690
S          8.28160        5.42630       -5.80490
H         -0.40490       -4.30450       11.74200
H         -0.60050       -4.92530       14.45400
H         -0.75560       -5.28530       16.80550
H         -1.64900       -4.00320       17.64460
H          0.09990       -4.06120       17.76320
H          0.30110        0.27520       17.37880
H         -1.48080        0.33900       17.26500
H         -0.69960       -0.13510       18.79390
H         -0.47090       -0.00450       15.18960
H          0.08850        1.02110       13.36470
H          0.17380        2.39730       11.51340
H         -2.08780       -0.35130       10.08000
H         -5.07340       -0.84550        6.85340
H         -6.43720       -2.65850        7.71400
H         -7.75150       -4.14590        8.48420
H         -7.82020       -5.85220        8.94360
H         -6.42170       -6.48100        6.99650
H         -6.29000       -4.79030        6.50720
H         -7.85690       -5.60690        6.44520
H         -1.64290       -2.46940        8.83600
H         -1.30320        3.59790        4.47620
H          0.23830        5.14810        3.35300
H          4.39120        3.62360        3.05980
H          5.19660        4.84850        4.07280
H          5.41530        6.32310        2.03270
H          6.27000        4.78820        1.84040
H          4.70980        5.03830        1.05060
H          2.02420        1.82130        6.50530
H         -1.03370        1.51120        3.28650
H         -4.15550       -1.86460        1.91250
H         -3.54270       -3.87870        0.72860
H         -4.94750       -5.72430        1.43980
H         -6.20070       -7.19010        2.33460
H         -7.47020       -8.36130        1.95580
H         -5.11040       -7.74130        0.09830
H         -6.38430       -8.92450       -0.19500
H         -5.23970       -9.17210        1.12920
H         -6.68710       -2.44070       -1.79990
H          0.00230        1.00200       -0.82920
H          1.30600        2.98140       -1.42670
H          1.37810        6.40790       -5.08930
H         -0.30230        5.85810       -5.06130
H          0.92890        4.84220       -6.99660
H          2.11560        4.14700       -5.88230
H          0.44620        3.58290       -5.85990
H         -2.97610        2.16100       -3.68450
H         -2.26550        0.13190       -4.68280
H         -5.46990       -3.77560       -5.67250
H         -5.80920       -6.88750       -7.15400
H         -6.70330       -5.72210       -6.15860
H         -7.07020       -5.91270       -7.88400
H         -3.32510       -6.29600      -10.71600
H         -4.63070       -5.30990      -11.43240
H         -4.85880       -7.06120      -11.20040
H         -3.17530       -4.04800      -10.07600
H         -1.64320       -2.00300      -10.47050
H          0.66540       -1.50890       -9.89740
H         -0.85850       -4.15210       -7.79470
H         -1.43470       -6.41390       -5.22790
H         -2.91690       -5.47550       -5.31300
H         -2.08320       -5.92900       -6.80880
H         -1.61320       -2.99520       -1.94290
H         -1.81400       -4.68650       -1.42770
H         -0.18520       -4.05590       -1.78650
H          0.09900       -2.26020       -3.30310
H          0.72030       -0.23800       -3.49800
H          2.06750        1.54340       -3.17320
H          3.58180        3.34040       -3.61450
H          7.39910        4.73290       -2.82930
H          6.80290        6.29090       -1.01640
H          2.51560        8.68420       -1.30390
H          2.77920        8.85710        0.44100
H          2.39740        6.17430       -0.99440
H          2.60570        6.40730        0.75120
H          1.15790        7.00710       -0.06310
H          3.83820        5.86220       -4.90880
H          6.29440       -0.44870       -7.06140
H          6.58040       -2.00560       -8.94140
H          8.50420       -1.83200      -13.46090
H          8.06300       -0.13630      -13.18960
H          9.49680       -0.10670      -11.12680
H          9.91040       -1.80320      -11.39180
H         10.45280       -0.56870      -12.53760
H          6.71820        2.84090       -9.77090
H          8.82260        2.99660       -8.43690
H         10.01980        5.09510       -7.47380
