
  xtb     03042202423D
 energy: -243.535116372647 gnorm: 0.000269954112 xtb: 6.4.1 (unknown)
154169  0     0  0            999 V2000
    4.9792   -0.0394    7.3680 C   0  0  0  0  0  0  0  0  0  0  0  0
    3.4922    0.6554    7.8411 S   0  0  0  0  0  0  0  0  0  0  0  0
    2.8543    0.5894    6.2223 C   0  0  0  0  0  0  0  0  0  0  0  0
    3.8039    0.0368    5.3537 C   0  0  0  0  0  0  0  0  0  0  0  0
    5.0196   -0.3187    6.0199 C   0  0  0  0  0  0  0  0  0  0  0  0
    6.0833   -0.8787    5.2715 C   0  0  0  0  0  0  0  0  0  0  0  0
    5.9591   -1.0682    3.9299 C   0  0  0  0  0  0  0  0  0  0  0  0
    7.0621   -1.6461    3.1014 C   0  0  0  0  0  0  0  0  0  0  0  0
    4.7403   -0.7023    3.2691 C   0  0  0  0  0  0  0  0  0  0  0  0
    4.7440   -0.9321    1.9234 O   0  0  0  0  0  0  0  0  0  0  0  0
    3.6112   -0.5676    1.1784 C   0  0  0  0  0  0  0  0  0  0  0  0
    3.6887   -0.1678    3.9641 C   0  0  0  0  0  0  0  0  0  0  0  0
    1.5655    1.0572    5.8988 C   0  0  0  0  0  0  0  0  0  0  0  0
    0.7137    1.7017    6.7410 C   0  0  0  0  0  0  0  0  0  0  0  0
   -0.5541    2.1809    6.3557 C   0  0  0  0  0  0  0  0  0  0  0  0
   -1.2013    1.8490    4.7778 S   0  0  0  0  0  0  0  0  0  0  0  0
   -2.6321    2.7950    5.0556 C   0  0  0  0  0  0  0  0  0  0  0  0
   -2.6114    3.3396    6.3428 C   0  0  0  0  0  0  0  0  0  0  0  0
   -1.4458    2.9815    7.0837 C   0  0  0  0  0  0  0  0  0  0  0  0
   -1.3018    3.4511    8.4044 C   0  0  0  0  0  0  0  0  0  0  0  0
   -2.2626    4.2331    8.9759 C   0  0  0  0  0  0  0  0  0  0  0  0
   -2.1435    4.7406   10.3772 C   0  0  0  0  0  0  0  0  0  0  0  0
   -3.4294    4.5860    8.2267 C   0  0  0  0  0  0  0  0  0  0  0  0
   -4.3164    5.3675    8.9055 O   0  0  0  0  0  0  0  0  0  0  0  0
   -5.4949    5.7657    8.2531 C   0  0  0  0  0  0  0  0  0  0  0  0
   -3.5994    4.1499    6.9401 C   0  0  0  0  0  0  0  0  0  0  0  0
   -3.6010    2.9505    4.0296 C   0  0  0  0  0  0  0  0  0  0  0  0
   -3.6432    2.1742    2.9285 C   0  0  0  0  0  0  0  0  0  0  0  0
   -4.4947    2.3769    1.7793 C   0  0  0  0  0  0  0  0  0  0  0  0
   -4.7314    3.6118    1.2532 C   0  0  0  0  0  0  0  0  0  0  0  0
   -5.5090    3.5916   -0.2848 S   0  0  0  0  0  0  0  0  0  0  0  0
   -5.5365    1.8544   -0.2538 C   0  0  0  0  0  0  0  0  0  0  0  0
   -5.0205    1.3297    0.9397 C   0  0  0  0  0  0  0  0  0  0  0  0
   -5.1583   -0.0527    1.1980 C   0  0  0  0  0  0  0  0  0  0  0  0
   -4.8901   -0.5920    2.5720 C   0  0  0  0  0  0  0  0  0  0  0  0
   -5.5826   -0.9053    0.1897 C   0  0  0  0  0  0  0  0  0  0  0  0
   -5.8482   -2.3483    0.5055 C   0  0  0  0  0  0  0  0  0  0  0  0
   -5.8342   -0.3907   -1.1050 C   0  0  0  0  0  0  0  0  0  0  0  0
   -5.9355    1.0011   -1.2694 C   0  0  0  0  0  0  0  0  0  0  0  0
   -6.5001    1.4529   -2.8488 S   0  0  0  0  0  0  0  0  0  0  0  0
   -6.4903   -0.2017   -3.3248 C   0  0  0  0  0  0  0  0  0  0  0  0
   -6.0814   -1.0680   -2.3548 C   0  0  0  0  0  0  0  0  0  0  0  0
   -5.7452   -2.4363   -2.7072 C   0  0  0  0  0  0  0  0  0  0  0  0
   -4.6579   -3.0698   -2.2475 C   0  0  0  0  0  0  0  0  0  0  0  0
   -4.2829   -4.4184   -2.6251 C   0  0  0  0  0  0  0  0  0  0  0  0
   -5.2338   -5.3560   -2.8989 C   0  0  0  0  0  0  0  0  0  0  0  0
   -4.6248   -6.9335   -3.2094 S   0  0  0  0  0  0  0  0  0  0  0  0
   -3.0067   -6.3487   -2.9782 C   0  0  0  0  0  0  0  0  0  0  0  0
   -2.9507   -4.9776   -2.6790 C   0  0  0  0  0  0  0  0  0  0  0  0
   -1.6858   -4.3865   -2.4558 C   0  0  0  0  0  0  0  0  0  0  0  0
   -1.5656   -2.9085   -2.2248 C   0  0  0  0  0  0  0  0  0  0  0  0
   -0.5351   -5.1636   -2.4665 C   0  0  0  0  0  0  0  0  0  0  0  0
    0.7457   -4.5867   -1.9378 C   0  0  0  0  0  0  0  0  0  0  0  0
   -0.5895   -6.5126   -2.8832 C   0  0  0  0  0  0  0  0  0  0  0  0
   -1.8485   -7.0989   -3.0908 C   0  0  0  0  0  0  0  0  0  0  0  0
   -1.7608   -8.7926   -3.4654 S   0  0  0  0  0  0  0  0  0  0  0  0
   -0.0428   -8.7068   -3.4064 C   0  0  0  0  0  0  0  0  0  0  0  0
    0.4609   -7.4693   -3.1409 C   0  0  0  0  0  0  0  0  0  0  0  0
    1.9015   -7.2911   -3.3017 C   0  0  0  0  0  0  0  0  0  0  0  0
    2.5448   -6.3469   -3.9983 C   0  0  0  0  0  0  0  0  0  0  0  0
    1.9421   -5.2194   -4.6925 C   0  0  0  0  0  0  0  0  0  0  0  0
    0.7611   -5.3353   -5.3581 C   0  0  0  0  0  0  0  0  0  0  0  0
    0.2431   -3.9062   -6.1620 S   0  0  0  0  0  0  0  0  0  0  0  0
    1.6790   -3.0883   -5.6262 C   0  0  0  0  0  0  0  0  0  0  0  0
    2.5056   -3.8944   -4.8291 C   0  0  0  0  0  0  0  0  0  0  0  0
    3.6828   -3.3268   -4.2845 C   0  0  0  0  0  0  0  0  0  0  0  0
    4.4884   -4.1024   -3.2824 C   0  0  0  0  0  0  0  0  0  0  0  0
    4.0898   -2.0530   -4.6616 C   0  0  0  0  0  0  0  0  0  0  0  0
    5.3988   -1.5266   -4.1439 C   0  0  0  0  0  0  0  0  0  0  0  0
    3.2834   -1.2679   -5.5226 C   0  0  0  0  0  0  0  0  0  0  0  0
    2.0467   -1.7903   -5.9404 C   0  0  0  0  0  0  0  0  0  0  0  0
    1.1155   -0.6770   -6.8900 S   0  0  0  0  0  0  0  0  0  0  0  0
    2.3804    0.4778   -6.7612 C   0  0  0  0  0  0  0  0  0  0  0  0
    3.4585    0.0699   -6.0395 C   0  0  0  0  0  0  0  0  0  0  0  0
    4.6187    0.9527   -5.9209 C   0  0  0  0  0  0  0  0  0  0  0  0
    4.5424    2.2510   -5.6171 C   0  0  0  0  0  0  0  0  0  0  0  0
    3.2871    2.9684   -5.3730 C   0  0  0  0  0  0  0  0  0  0  0  0
    2.9319    3.9896   -6.1964 C   0  0  0  0  0  0  0  0  0  0  0  0
    1.3088    4.5393   -5.9934 S   0  0  0  0  0  0  0  0  0  0  0  0
    1.0731    3.3742   -4.7272 C   0  0  0  0  0  0  0  0  0  0  0  0
    2.2329    2.6317   -4.4506 C   0  0  0  0  0  0  0  0  0  0  0  0
    2.2316    1.7388   -3.3569 C   0  0  0  0  0  0  0  0  0  0  0  0
    3.5092    1.1253   -2.8694 C   0  0  0  0  0  0  0  0  0  0  0  0
    1.0548    1.4716   -2.6774 C   0  0  0  0  0  0  0  0  0  0  0  0
    1.0456    0.4212   -1.6053 C   0  0  0  0  0  0  0  0  0  0  0  0
   -0.1236    2.1829   -2.9928 C   0  0  0  0  0  0  0  0  0  0  0  0
   -0.0935    3.1475   -4.0139 C   0  0  0  0  0  0  0  0  0  0  0  0
   -1.6322    3.9161   -4.2544 S   0  0  0  0  0  0  0  0  0  0  0  0
   -2.3159    2.9456   -3.0020 C   0  0  0  0  0  0  0  0  0  0  0  0
   -1.4362    2.1007   -2.4099 C   0  0  0  0  0  0  0  0  0  0  0  0
   -1.8383    1.2532   -1.2836 C   0  0  0  0  0  0  0  0  0  0  0  0
   -2.7579    0.3089   -1.3836 C   0  0  0  0  0  0  0  0  0  0  0  0
    5.7449   -0.2025    8.0995 H   0  0  0  0  0  0  0  0  0  0  0  0
    6.9965   -1.1468    5.7817 H   0  0  0  0  0  0  0  0  0  0  0  0
    7.9271   -1.8771    3.7168 H   0  0  0  0  0  0  0  0  0  0  0  0
    7.3527   -0.9413    2.3238 H   0  0  0  0  0  0  0  0  0  0  0  0
    6.7212   -2.5536    2.6055 H   0  0  0  0  0  0  0  0  0  0  0  0
    2.7232   -1.1273    1.4909 H   0  0  0  0  0  0  0  0  0  0  0  0
    3.8449   -0.8156    0.1438 H   0  0  0  0  0  0  0  0  0  0  0  0
    3.4081    0.5059    1.2575 H   0  0  0  0  0  0  0  0  0  0  0  0
    2.7706    0.1078    3.4718 H   0  0  0  0  0  0  0  0  0  0  0  0
    1.2479    0.8993    4.8761 H   0  0  0  0  0  0  0  0  0  0  0  0
    1.0226    1.8938    7.7594 H   0  0  0  0  0  0  0  0  0  0  0  0
   -0.4220    3.1837    8.9699 H   0  0  0  0  0  0  0  0  0  0  0  0
   -2.9790    4.3818   10.9764 H   0  0  0  0  0  0  0  0  0  0  0  0
   -2.1843    5.8287   10.3855 H   0  0  0  0  0  0  0  0  0  0  0  0
   -1.2116    4.4131   10.8299 H   0  0  0  0  0  0  0  0  0  0  0  0
   -5.2791    6.3695    7.3653 H   0  0  0  0  0  0  0  0  0  0  0  0
   -6.0427    6.3703    8.9743 H   0  0  0  0  0  0  0  0  0  0  0  0
   -6.1065    4.9042    7.9650 H   0  0  0  0  0  0  0  0  0  0  0  0
   -4.4760    4.4051    6.3675 H   0  0  0  0  0  0  0  0  0  0  0  0
   -4.3412    3.7262    4.1709 H   0  0  0  0  0  0  0  0  0  0  0  0
   -2.9343    1.3599    2.8433 H   0  0  0  0  0  0  0  0  0  0  0  0
   -4.4241    4.5550    1.6610 H   0  0  0  0  0  0  0  0  0  0  0  0
   -3.9570   -1.1560    2.5953 H   0  0  0  0  0  0  0  0  0  0  0  0
   -4.8284    0.2121    3.2988 H   0  0  0  0  0  0  0  0  0  0  0  0
   -5.6881   -1.2657    2.8787 H   0  0  0  0  0  0  0  0  0  0  0  0
   -6.5429   -2.4134    1.3432 H   0  0  0  0  0  0  0  0  0  0  0  0
   -6.2942   -2.8607   -0.3391 H   0  0  0  0  0  0  0  0  0  0  0  0
   -4.9378   -2.8730    0.7942 H   0  0  0  0  0  0  0  0  0  0  0  0
   -6.7297   -0.4446   -4.3421 H   0  0  0  0  0  0  0  0  0  0  0  0
   -6.3440   -2.8812   -3.4910 H   0  0  0  0  0  0  0  0  0  0  0  0
   -4.0340   -2.5760   -1.5205 H   0  0  0  0  0  0  0  0  0  0  0  0
   -6.2968   -5.2131   -2.8917 H   0  0  0  0  0  0  0  0  0  0  0  0
   -1.6793   -2.6560   -1.1699 H   0  0  0  0  0  0  0  0  0  0  0  0
   -0.5936   -2.5489   -2.5515 H   0  0  0  0  0  0  0  0  0  0  0  0
   -2.3228   -2.3789   -2.7953 H   0  0  0  0  0  0  0  0  0  0  0  0
    1.1912   -3.8699   -2.6256 H   0  0  0  0  0  0  0  0  0  0  0  0
    0.5491   -4.0699   -0.9992 H   0  0  0  0  0  0  0  0  0  0  0  0
    1.4654   -5.3768   -1.7492 H   0  0  0  0  0  0  0  0  0  0  0  0
    0.5222   -9.5892   -3.6390 H   0  0  0  0  0  0  0  0  0  0  0  0
    2.4892   -8.1102   -2.9038 H   0  0  0  0  0  0  0  0  0  0  0  0
    3.6173   -6.4354   -4.0945 H   0  0  0  0  0  0  0  0  0  0  0  0
    0.1650   -6.2199   -5.4602 H   0  0  0  0  0  0  0  0  0  0  0  0
    5.2893   -4.6579   -3.7710 H   0  0  0  0  0  0  0  0  0  0  0  0
    4.9475   -3.4410   -2.5523 H   0  0  0  0  0  0  0  0  0  0  0  0
    3.8544   -4.7992   -2.7432 H   0  0  0  0  0  0  0  0  0  0  0  0
    5.4465   -1.5836   -3.0566 H   0  0  0  0  0  0  0  0  0  0  0  0
    6.2223   -2.1206   -4.5403 H   0  0  0  0  0  0  0  0  0  0  0  0
    5.5479   -0.4920   -4.4226 H   0  0  0  0  0  0  0  0  0  0  0  0
    2.2717    1.4123   -7.2750 H   0  0  0  0  0  0  0  0  0  0  0  0
    5.5815    0.5237   -6.1665 H   0  0  0  0  0  0  0  0  0  0  0  0
    5.4386    2.8583   -5.6431 H   0  0  0  0  0  0  0  0  0  0  0  0
    3.5279    4.4231   -6.9766 H   0  0  0  0  0  0  0  0  0  0  0  0
    4.3677    1.6224   -3.3084 H   0  0  0  0  0  0  0  0  0  0  0  0
    3.5727    1.2219   -1.7864 H   0  0  0  0  0  0  0  0  0  0  0  0
    3.5514    0.0675   -3.1182 H   0  0  0  0  0  0  0  0  0  0  0  0
    1.3765    0.8340   -0.6513 H   0  0  0  0  0  0  0  0  0  0  0  0
    1.7123   -0.3971   -1.8682 H   0  0  0  0  0  0  0  0  0  0  0  0
    0.0452    0.0201   -1.4783 H   0  0  0  0  0  0  0  0  0  0  0  0
   -3.3493    3.0813   -2.7472 H   0  0  0  0  0  0  0  0  0  0  0  0
   -1.3561    1.4618   -0.3361 H   0  0  0  0  0  0  0  0  0  0  0  0
   -3.2404    0.0934   -2.3219 H   0  0  0  0  0  0  0  0  0  0  0  0
   -3.0539   -0.2853   -0.5374 H   0  0  0  0  0  0  0  0  0  0  0  0
  1  2  1  0  0  0  0
  2  3  1  0  0  0  0
  3  4  2  0  0  0  0
  4  5  1  0  0  0  0
  5  6  1  0  0  0  0
  6  7  2  0  0  0  0
  7  8  1  0  0  0  0
  7  9  1  0  0  0  0
  9 10  1  0  0  0  0
 10 11  1  0  0  0  0
  9 12  2  0  0  0  0
  3 13  1  0  0  0  0
 13 14  2  0  0  0  0
 14 15  1  0  0  0  0
 15 16  1  0  0  0  0
 16 17  1  0  0  0  0
 17 18  2  0  0  0  0
 18 19  1  0  0  0  0
 19 20  1  0  0  0  0
 20 21  2  0  0  0  0
 21 22  1  0  0  0  0
 21 23  1  0  0  0  0
 23 24  1  0  0  0  0
 24 25  1  0  0  0  0
 23 26  2  0  0  0  0
 17 27  1  0  0  0  0
 27 28  2  0  0  0  0
 28 29  1  0  0  0  0
 29 30  2  0  0  0  0
 30 31  1  0  0  0  0
 31 32  1  0  0  0  0
 32 33  2  0  0  0  0
 33 34  1  0  0  0  0
 34 35  1  0  0  0  0
 34 36  2  0  0  0  0
 36 37  1  0  0  0  0
 36 38  1  0  0  0  0
 38 39  2  0  0  0  0
 39 40  1  0  0  0  0
 40 41  1  0  0  0  0
 41 42  2  0  0  0  0
 42 43  1  0  0  0  0
 43 44  2  0  0  0  0
 44 45  1  0  0  0  0
 45 46  2  0  0  0  0
 46 47  1  0  0  0  0
 47 48  1  0  0  0  0
 48 49  2  0  0  0  0
 49 50  1  0  0  0  0
 50 51  1  0  0  0  0
 50 52  2  0  0  0  0
 52 53  1  0  0  0  0
 52 54  1  0  0  0  0
 54 55  2  0  0  0  0
 55 56  1  0  0  0  0
 56 57  1  0  0  0  0
 57 58  2  0  0  0  0
 58 59  1  0  0  0  0
 59 60  2  0  0  0  0
 60 61  1  0  0  0  0
 61 62  2  0  0  0  0
 62 63  1  0  0  0  0
 63 64  1  0  0  0  0
 64 65  2  0  0  0  0
 65 66  1  0  0  0  0
 66 67  1  0  0  0  0
 66 68  2  0  0  0  0
 68 69  1  0  0  0  0
 68 70  1  0  0  0  0
 70 71  2  0  0  0  0
 71 72  1  0  0  0  0
 72 73  1  0  0  0  0
 73 74  2  0  0  0  0
 74 75  1  0  0  0  0
 75 76  2  0  0  0  0
 76 77  1  0  0  0  0
 77 78  2  0  0  0  0
 78 79  1  0  0  0  0
 79 80  1  0  0  0  0
 80 81  2  0  0  0  0
 81 82  1  0  0  0  0
 82 83  1  0  0  0  0
 82 84  2  0  0  0  0
 84 85  1  0  0  0  0
 84 86  1  0  0  0  0
 86 87  2  0  0  0  0
 87 88  1  0  0  0  0
 88 89  1  0  0  0  0
 89 90  2  0  0  0  0
 90 91  1  0  0  0  0
 91 92  2  0  0  0  0
  5  1  2  0  0  0  0
 19 15  2  0  0  0  0
 33 29  1  0  0  0  0
 42 38  1  0  0  0  0
 49 45  1  0  0  0  0
 58 54  1  0  0  0  0
 65 61  1  0  0  0  0
 74 70  1  0  0  0  0
 81 77  1  0  0  0  0
 90 86  1  0  0  0  0
 12  4  1  0  0  0  0
 26 18  1  0  0  0  0
 39 32  1  0  0  0  0
 55 48  1  0  0  0  0
 71 64  1  0  0  0  0
 87 80  1  0  0  0  0
  1 93  1  0  0  0  0
  6 94  1  0  0  0  0
  8 95  1  0  0  0  0
  8 96  1  0  0  0  0
  8 97  1  0  0  0  0
 11 98  1  0  0  0  0
 11 99  1  0  0  0  0
 11100  1  0  0  0  0
 12101  1  0  0  0  0
 13102  1  0  0  0  0
 14103  1  0  0  0  0
 20104  1  0  0  0  0
 22105  1  0  0  0  0
 22106  1  0  0  0  0
 22107  1  0  0  0  0
 25108  1  0  0  0  0
 25109  1  0  0  0  0
 25110  1  0  0  0  0
 26111  1  0  0  0  0
 27112  1  0  0  0  0
 28113  1  0  0  0  0
 30114  1  0  0  0  0
 35115  1  0  0  0  0
 35116  1  0  0  0  0
 35117  1  0  0  0  0
 37118  1  0  0  0  0
 37119  1  0  0  0  0
 37120  1  0  0  0  0
 41121  1  0  0  0  0
 43122  1  0  0  0  0
 44123  1  0  0  0  0
 46124  1  0  0  0  0
 51125  1  0  0  0  0
 51126  1  0  0  0  0
 51127  1  0  0  0  0
 53128  1  0  0  0  0
 53129  1  0  0  0  0
 53130  1  0  0  0  0
 57131  1  0  0  0  0
 59132  1  0  0  0  0
 60133  1  0  0  0  0
 62134  1  0  0  0  0
 67135  1  0  0  0  0
 67136  1  0  0  0  0
 67137  1  0  0  0  0
 69138  1  0  0  0  0
 69139  1  0  0  0  0
 69140  1  0  0  0  0
 73141  1  0  0  0  0
 75142  1  0  0  0  0
 76143  1  0  0  0  0
 78144  1  0  0  0  0
 83145  1  0  0  0  0
 83146  1  0  0  0  0
 83147  1  0  0  0  0
 85148  1  0  0  0  0
 85149  1  0  0  0  0
 85150  1  0  0  0  0
 89151  1  0  0  0  0
 91152  1  0  0  0  0
 92153  1  0  0  0  0
 92154  1  0  0  0  0
M  END
