106

C         -4.71760        2.96800       -0.59480
S         -3.38400        2.30560       -1.46050
C         -2.93970        3.85870       -2.08950
C         -3.79670        4.83780       -1.60610
C         -4.82280        4.31930       -0.75710
O         -5.73980        5.15120       -0.22250
C         -6.72800        4.56050        0.58990
C         -3.67120        6.19620       -1.93080
N         -3.55060        7.30640       -2.20130
C         -1.81770        4.13170       -2.93200
C         -0.97390        3.27970       -3.54340
C         -1.06310        1.83590       -3.60660
S         -2.53850        1.08480       -4.17850
C         -1.88820       -0.51640       -4.02580
C         -0.56400       -0.45310       -3.61910
C         -0.09880        0.87820       -3.38190
O          1.16480        1.01380       -2.90700
C          1.80080        2.27240       -2.95140
C          0.31140       -1.54840       -3.56280
N          1.05560       -2.42320       -3.56090
C         -2.68330       -1.63430       -4.42710
C         -2.61790       -2.91230       -3.97760
C         -1.92830       -3.42140       -2.84560
S         -1.58020       -2.46590       -1.44480
C         -0.77910       -3.76550       -0.62700
C         -0.83710       -4.93330       -1.40600
C         -1.50850       -4.74430       -2.64780
C         -1.63340       -5.83150       -3.53620
C         -1.13010       -7.05760       -3.21080
C         -1.25170       -8.23550       -4.12370
C         -0.45670       -7.23920       -1.96210
O          0.00730       -8.50140       -1.75340
C          0.71890       -8.77000       -0.57050
C         -0.31640       -6.19970       -1.07860
C         -0.01220       -3.57960        0.54640
C          0.05420       -2.49100        1.35080
C         -0.84800       -1.38220        1.38330
S         -0.25250        0.21150        1.72800
C         -1.83030        0.90800        1.69720
C         -2.79190       -0.09200        1.48450
C         -2.23550       -1.38100        1.30370
O         -2.87750       -2.55150        1.10390
C         -4.27930       -2.55310        0.98770
C         -4.14980        0.24590        1.48530
N         -5.24580        0.59910        1.51030
C         -2.11710        2.29750        1.70460
C         -1.26420        3.34880        1.70180
C          0.14340        3.32580        1.95730
S          1.23920        4.31270        1.02960
C          2.61170        3.73810        1.90900
C          2.22130        2.88240        2.93560
C          0.81780        2.64890        2.96030
O          0.09780        1.90870        3.83030
C          0.75080        1.22060        4.87030
C          3.14550        2.40330        3.87510
N          3.91270        2.03940        4.65030
C          3.92640        4.18030        1.55700
C          5.06820        3.46630        1.64230
C          5.19440        2.06500        1.91180
S          6.60720        1.48670        2.74440
C          6.04960       -0.14490        2.70210
C          4.82660       -0.23700        2.04680
C          4.34520        1.01960        1.57960
O          3.21590        1.24940        0.87210
C          2.72200        0.20030        0.05820
C          4.14230       -1.46130        1.97330
N          3.59270       -2.47160        1.97210
C          6.77050       -1.23380        3.29700
C          7.92860       -1.10530        3.94120
H         -5.33550        2.30620       -0.02140
H         -7.32770        3.84320        0.02230
H         -6.28400        4.05420        1.45270
H         -7.36170        5.37780        0.92940
H         -1.62800        5.19160       -3.05630
H         -0.14930        3.72650       -4.08680
H          2.79240        2.11460       -2.52900
H          1.90330        2.62350       -3.98170
H          1.26340        3.01510       -2.35510
H         -3.40850       -1.41000       -5.20000
H         -3.18730       -3.65140       -4.52970
H         -2.13070       -5.69090       -4.48420
H         -1.79460       -7.97320       -5.02800
H         -1.76850       -9.04910       -3.61590
H         -0.26180       -8.60040       -4.39290
H          1.61730       -8.14890       -0.49260
H          1.00870       -9.81760       -0.63350
H          0.09550       -8.62010        0.31780
H          0.18300       -6.33000       -0.13290
H          0.68530       -4.37930        0.75750
H          0.88410       -2.43580        2.04440
H         -4.76080       -2.20530        1.90620
H         -4.55290       -3.59130        0.80310
H         -4.60980       -1.93410        0.14890
H         -3.17070        2.52180        1.58930
H         -1.67440        4.32090        1.45920
H          1.48740        0.51210        4.48330
H          1.24240        1.90960        5.56150
H         -0.03440        0.67910        5.39540
H          3.98560        5.19410        1.18020
H          6.00700        3.98460        1.47870
H          2.26990       -0.59610        0.65090
H          3.51050       -0.22460       -0.56830
H          1.96060        0.64670       -0.57530
H          6.29700       -2.20260        3.19370
H          8.42820       -1.95230        4.37650
H          8.40540       -0.14420        4.05120
