116

C         10.20310       -0.93800        3.41780
C          9.86060       -0.21150        4.47810
C          9.39700       -1.11860        2.23860
S          9.99790       -2.10920        0.93570
C          8.57140       -1.85310       -0.00590
C          8.49300       -2.45140       -1.36520
C          7.67130       -1.04300        0.65540
C          8.16520       -0.62640        1.92280
C          6.38220       -0.59750        0.18970
C          5.61440       -1.19750       -0.74160
C          4.33660       -0.74730       -1.18680
S          3.25240       -1.92480       -1.84600
C          1.97600       -0.77310       -2.09510
C          2.38430        0.49340       -1.66700
C          3.73230        0.51300       -1.18280
C          4.30930        1.75200       -0.82440
C          3.57440        2.89880       -0.83530
C          4.16090        4.22340       -0.46490
C          2.19040        2.84690       -1.19330
O          1.54130        4.04180       -1.09330
C          0.16720        4.08400       -1.37880
C          1.61670        1.67830       -1.61410
C          0.77840       -1.27230       -2.68610
C         -0.16650       -0.57760       -3.34780
C         -1.36420       -1.14340       -3.93860
C         -2.36390       -0.33620       -4.33220
C         -1.48010       -2.58490       -4.12400
S         -3.04190       -3.35060       -4.03400
C         -2.36950       -4.89820       -4.42150
C         -3.26030       -6.07520       -4.60250
C         -1.01250       -4.82190       -4.59130
C         -0.52200       -3.49730       -4.45170
C         -0.14980       -5.96620       -4.87460
C         -0.11930       -7.08320       -4.14470
C         -0.85870       -7.27150       -2.89210
C         -1.43490       -8.43280       -2.57530
C         -0.91680       -6.12960       -1.98210
S          0.53610       -5.24750       -1.59460
C         -0.33780       -4.15480       -0.58130
C          0.37480       -3.08450        0.16830
C         -1.68390       -4.44080       -0.57020
C         -1.98920       -5.59440       -1.34420
C         -2.65110       -3.56950        0.04570
C         -3.97670       -3.76030        0.08170
C         -4.91290       -2.76290        0.58210
C         -6.09040       -3.11200        1.11690
C         -4.55170       -1.35880        0.42800
S         -3.65290       -0.83110       -0.97080
C         -3.73940        0.82210       -0.46860
C         -3.04350        1.85320       -1.28490
C         -4.41990        0.95710        0.71800
C         -4.87040       -0.29770        1.21680
C         -4.66130        2.18410        1.44770
C         -4.80930        3.40030        0.90790
C         -5.01920        4.63710        1.64210
C         -4.88640        5.81810        1.01990
C         -5.36690        4.61470        3.05950
S         -6.54950        3.51150        3.70640
C         -6.40770        4.20000        5.28530
C         -7.22640        3.65510        6.40380
C         -5.49470        5.22760        5.31110
C         -4.91750        5.45370        4.03160
C         -5.18370        5.97800        6.51220
C         -4.34530        7.00560        6.58610
H         11.15640       -1.45050        3.40160
H         10.51440       -0.11980        5.32720
H          8.92260        0.31270        4.53520
H          7.92410       -3.38280       -1.35210
H          8.00830       -1.76190       -2.05540
H          9.49260       -2.67700       -1.73150
H          7.60000        0.01220        2.57780
H          6.00000        0.27260        0.70460
H          5.91890       -2.15100       -1.14820
H          5.35480        1.79390       -0.56430
H          5.21770        4.12770       -0.23050
H          4.03760        4.92930       -1.28470
H          3.63770        4.63500        0.39700
H         -0.03810        3.81400       -2.42020
H         -0.39830        3.42290       -0.71420
H         -0.13960        5.11500       -1.20860
H          0.57730        1.63530       -1.88830
H          0.67070       -2.34590       -2.61600
H         -0.07000        0.49180       -3.46670
H         -2.30240        0.73270       -4.22360
H         -3.26660       -0.72630       -4.76790
H         -2.76540       -6.82400       -5.21790
H         -3.50770       -6.53850       -3.64730
H         -4.18980       -5.77330       -5.08190
H          0.51230       -3.24920       -4.61100
H          0.49300       -5.87100       -5.74100
H          0.48870       -7.91860       -4.46570
H         -1.40870       -9.27430       -3.24640
H         -1.95600       -8.56860       -1.64350
H          1.44500       -3.14700       -0.01190
H          0.19710       -3.18790        1.23930
H          0.02820       -2.09640       -0.13800
H         -2.98500       -5.98360       -1.45090
H         -2.24120       -2.66050        0.46440
H         -4.41210       -4.69010       -0.25470
H         -6.36370       -4.14620        1.23570
H         -6.79990       -2.37910        1.45760
H         -2.19540        1.40190       -1.79650
H         -2.69530        2.66610       -0.64940
H         -3.70990        2.26900       -2.04260
H         -5.41170       -0.39210        2.14160
H         -4.74570        2.05430        2.51860
H         -4.76140        3.52130       -0.16430
H         -5.04730        6.75050        1.53120
H         -4.61170        5.87630       -0.01940
H         -7.84050        2.83010        6.05100
H         -7.88220        4.42410        6.81330
H         -6.58680        3.29110        7.20870
H         -4.16900        6.20150        3.84340
H         -5.69980        5.65050        7.40520
H         -4.16860        7.51830        7.51600
H         -3.80930        7.37880        5.73060
