122

C          0.89150       -2.50800        2.40310
S          1.90990       -1.58920        1.38560
C          3.17440       -2.77770        1.43700
C          2.76070       -3.87750        2.19680
C          1.45670       -3.70880        2.76240
C          0.91600       -4.72190        3.59050
C          1.63320       -5.84510        3.86140
C          1.10470       -6.93820        4.73380
C          2.94730       -6.00180        3.30530
O          3.56530       -7.16220        3.66190
C          4.86700       -7.40330        3.19170
C          3.49640       -5.04350        2.49630
C          4.40120       -2.69890        0.71470
C          5.21140       -1.65310        0.40250
C          5.20380       -0.30040        0.81970
S          4.05180        0.37400        1.91710
C          4.85460        1.90690        1.99840
C          5.99410        1.89830        1.19020
C          6.18480        0.65990        0.50880
C          7.28110        0.53550       -0.36820
C          8.12940        1.58330       -0.58320
C          9.29200        1.48240       -1.51770
C          7.90770        2.82950        0.08400
O          8.79570        3.80790       -0.23540
C          8.59600        5.08950        0.31110
C          6.86700        2.97890        0.96180
C          4.37910        2.93420        2.86270
C          3.09510        3.09550        3.25740
C          1.97770        2.43020        2.64820
S          0.73610        1.69460        3.59580
C         -0.17990        1.20240        2.20440
C          0.51900        1.52150        1.03330
C          1.70270        2.28370        1.28650
C          2.40380        2.83090        0.17510
C          3.42920        3.79060        0.30670
N          4.21540        4.62790        0.30450
C          2.02710        2.48010       -1.10390
C          0.97820        1.57540       -1.32450
C          0.22430        1.11280       -0.28300
C         -1.46980        0.63680        2.39380
C         -2.54640        0.67150        1.56300
C         -2.71150        1.39130        0.34600
S         -3.63650        0.64860       -0.92710
C         -3.26210        1.88750       -2.08590
C         -2.43680        2.86690       -1.47460
C         -2.19630        2.61740       -0.09000
C         -1.56000        3.62870        0.68110
C         -1.60640        3.63520        2.08940
N         -1.69610        3.75570        3.22750
C         -1.00630        4.72250        0.04810
C         -1.11620        4.87510       -1.33770
C         -1.85790        3.99420       -2.08140
C         -3.70950        1.98400       -3.41240
C         -4.55110        1.27180       -4.23160
C         -5.28720        0.08560       -4.10660
S         -5.24030       -0.97100       -2.73170
C         -6.27860       -2.14990       -3.44700
C         -6.68420       -1.72520       -4.72860
C         -6.12690       -0.46670       -5.10360
C         -6.46300        0.06120       -6.37650
C         -6.01220        1.30270       -6.87550
N         -5.71470        2.29340       -7.37520
C         -7.29890       -0.65380       -7.21740
C         -7.81920       -1.89360       -6.83790
C         -7.51950       -2.42790       -5.61280
C         -6.70900       -3.31550       -2.77610
C         -6.27170       -3.83970       -1.60120
C         -5.14900       -3.45590       -0.80900
S         -5.35590       -3.44810        0.91720
C         -3.75380       -2.87830        1.21290
C         -3.05840       -2.72890        0.00850
C         -3.83990       -3.09830       -1.13530
C         -3.19980       -3.13090       -2.40690
C         -3.81500       -3.67880       -3.55140
N         -4.24190       -4.14710       -4.50840
C         -1.89670       -2.69330       -2.52720
C         -1.17970       -2.24040       -1.41140
C         -1.73430       -2.27730       -0.16210
C         -3.27320       -2.63490        2.53680
C         -3.98430       -2.79060        3.65470
H         -0.05140       -2.10460        2.71190
H         -0.07220       -4.58680        4.00470
H          1.75960       -7.08000        5.59210
H          1.08370       -7.87800        4.18450
H          0.10260       -6.70370        5.08230
H          4.89640       -7.45960        2.09840
H          5.15860       -8.36590        3.60920
H          5.56680       -6.63340        3.53370
H          4.48620       -5.15400        2.08470
H          4.75700       -3.67070        0.38860
H          6.07130       -1.90040       -0.20770
H          7.44760       -0.39500       -0.89020
H          9.20220        2.22870       -2.30560
H          9.34750        0.49350       -1.96490
H         10.21860        1.68750       -0.98370
H          7.60800        5.48290        0.05350
H          8.71130        5.08230        1.40000
H          9.36690        5.72120       -0.12810
H          6.67210        3.91090        1.46360
H          5.13140        3.60280        3.26030
H          2.87130        3.76550        4.07630
H          2.56150        2.89770       -1.94460
H          0.75800        1.26470       -2.33460
H         -0.57960        0.41590       -0.45410
H         -1.61380        0.14970        3.35100
H         -3.38860        0.04370        1.83010
H         -0.50740        5.47890        0.63600
H         -0.65260        5.72690       -1.81090
H         -1.99280        4.17330       -3.13660
H         -3.31040        2.86470       -3.90060
H         -4.67580        1.72430       -5.20660
H         -7.54680       -0.23920       -8.18360
H         -8.46030       -2.42670       -7.52280
H         -7.91480       -3.38900       -5.32570
H         -7.54120       -3.82230       -3.24590
H         -6.88430       -4.61630       -1.15880
H         -1.42120       -2.71760       -3.49680
H         -0.16550       -1.89380       -1.54220
H         -1.15750       -1.96620        0.69310
H         -2.24530       -2.30670        2.59640
H         -5.01030       -3.11830        3.62930
H         -3.56070       -2.59500        4.62330
