218

C        -10.25100      -15.79520        2.32180
S         -9.24380      -17.16710        2.40750
C         -8.31780      -16.67690        1.01760
C         -8.85850      -15.51560        0.47150
C         -9.94290      -14.99180        1.24740
C        -10.53740      -13.76290        0.86870
C        -10.09730      -13.09150       -0.22910
C        -10.69090      -11.78810       -0.65850
C         -9.05080      -13.65250       -1.03650
O         -8.70560      -12.89490       -2.11300
C         -7.62980      -13.31760       -2.91250
C         -8.46810      -14.84610       -0.71040
C         -7.19010      -17.47070        0.63130
C         -5.99980      -17.05160        0.14780
C         -5.51850      -15.70880        0.02600
C         -4.48970      -15.28770       -0.77150
C         -4.27070      -13.88890       -0.73500
C         -3.37700      -13.11900       -1.49880
C         -2.50280      -13.72940       -2.48790
S         -0.78120      -13.50020       -2.44610
C         -0.54070      -14.46570       -3.86350
C          0.82090      -14.66140       -4.43280
C          1.32740      -13.38190       -5.10130
C         -1.73520      -14.92210       -4.33440
Cl        -1.90800      -15.90530       -5.73180
C         -2.84890      -14.50960       -3.55440
Cl        -4.46880      -14.89660       -3.97520
C         -3.39360      -11.74490       -1.29880
C         -4.32430      -11.10200       -0.44730
C         -5.24190      -11.86620        0.29760
C         -6.32020      -11.24420        1.04440
S         -7.31930      -10.04770        0.26560
C         -8.37550       -9.91820        1.62950
C         -9.49040       -8.93210        1.64860
C         -8.95460       -7.51330        1.85310
C         -7.96460      -10.75680        2.62120
C         -6.80540      -11.51160        2.29460
Cl        -6.05630      -12.55460        3.42920
Cl        -8.76320      -10.91850        4.13060
C         -5.14900      -13.24670        0.17650
S         -6.17380      -14.39210        0.97590
C         -4.17530       -9.69610       -0.46820
C         -3.18100       -9.26360       -1.29840
S         -2.37620      -10.58900       -2.11080
C         -2.78270       -7.91110       -1.51990
C         -3.40040       -6.79080       -1.04220
C         -2.76170       -5.58720       -1.42020
C         -3.11970       -4.27050       -1.07450
C         -4.36240       -3.99050       -0.37860
S         -4.41750       -2.95110        1.01510
C         -6.12670       -3.14540        1.19210
C         -6.88680       -2.42170        2.24800
C         -7.44420       -1.10380        1.70420
C         -6.61490       -3.95870        0.21310
Cl        -8.27310       -4.36870        0.05480
C         -5.62050       -4.44270       -0.67700
Cl        -6.01080       -5.41790       -2.03670
C         -2.23280       -3.26560       -1.43720
C         -1.05230       -3.50710       -2.18340
C         -0.72480       -4.81750       -2.57400
C          0.48810       -5.10550       -3.32160
S          0.43790       -6.00540       -4.80780
C          2.15160       -5.90370       -5.01770
C          2.82960       -6.55450       -6.17250
C          3.24660       -7.98620       -5.82600
C          2.71730       -5.22470       -3.97970
C          1.77780       -4.76660       -3.01790
Cl         2.25030       -3.94710       -1.58490
Cl         4.40170       -4.93210       -3.83460
C         -1.59410       -5.82720       -2.18490
S         -1.36250       -7.52920       -2.46820
C         -0.33740       -2.31140       -2.44190
C         -0.90960       -1.20480       -1.88950
S         -2.41400       -1.57500       -1.06770
C         -0.39250        0.12200       -1.83960
C         -0.96060        1.20030       -1.22780
C         -0.14010        2.35300       -1.23460
C         -0.38820        3.59210       -0.61750
C         -1.61540        3.84190        0.11970
S         -2.15040        2.75900        1.37180
C         -3.53790        3.73000        1.73070
C         -4.51940        3.30310        2.76530
C         -5.27750        2.05090        2.32080
C         -3.57180        4.82270        0.91780
Cl        -4.80090        6.01890        0.96600
C         -2.48090        4.89440        0.00880
Cl        -2.34240        6.14090       -1.15870
C          0.61900        4.54500       -0.69380
C          1.83720        4.31840       -1.38130
C          2.07250        3.09260       -2.03130
C          3.32670        2.84300       -2.72170
S          4.85450        3.15790       -1.94800
C          5.75750        2.65080       -3.33100
C          7.24690        2.70010       -3.36830
C          7.86260        2.96560       -2.00160
C          4.91060        2.25630       -4.32470
C          3.53570        2.36050       -3.98490
Cl         2.28920        2.00290       -5.10420
Cl         5.44810        1.69340       -5.85420
C          1.07670        2.12950       -1.92800
S          1.18010        0.49290       -2.51200
C          2.71440        5.42080       -1.26700
C          2.23060        6.42760       -0.48270
S          0.61830        6.09380        0.10130
C          2.95200        7.60230       -0.11190
C          4.30500        7.75330       -0.20890
C          4.76800        9.01270        0.23380
C          6.09890        9.46830        0.29080
C          7.17560        8.64950       -0.23880
S          8.58310        8.27040        0.70820
C          9.25300        7.27800       -0.54080
C         10.58150        6.62480       -0.38270
C         11.70670        7.57130       -0.80790
C          8.43230        7.26780       -1.62890
Cl         8.76520        6.39920       -3.07080
C          7.25270        8.03990       -1.46190
Cl         6.09910        8.23390       -2.72090
C          6.31300       10.70840        0.87200
C          5.25720       11.52380        1.35160
C          3.92720       11.06940        1.28710
C          2.83960       11.86460        1.82990
S          1.42880       12.24280        0.88790
C          0.71630       13.15240        2.17650
C         -0.63530       13.75900        2.03150
C         -1.72770       12.70990        2.25260
C          1.52950       13.14270        3.27020
C          2.73430       12.41640        3.07690
Cl         3.88310       12.18800        4.33320
Cl         1.16220       13.93400        4.74890
C          3.71230        9.82340        0.71410
S          2.17520        9.01650        0.56430
C          5.72390       12.76920        1.83220
C          7.08310       12.90640        1.78490
S          7.85250       11.49330        1.07130
C          7.88260       13.99740        2.22130
S          9.45210       14.24420        1.53480
C          9.74150       15.66630        2.47570
C          8.65680       15.92820        3.31600
C          7.60060       14.97440        3.18080
C          6.47460       15.07890        4.02570
C          6.36470       16.09850        4.92320
C          5.18360       16.22590        5.82980
C          7.40530       17.07780        5.01930
O          7.17440       18.05120        5.94230
C          8.15120       19.04280        6.13460
C          8.52850       16.98620        4.24290
C         10.95480       16.41190        2.34520
C         11.96020       16.09990        1.52610
H        -11.00430      -15.63990        3.06830
H        -11.34040      -13.36450        1.47090
H        -11.24510      -11.92170       -1.58730
H         -9.90110      -11.06580       -0.85560
H        -11.36290      -11.40070        0.10260
H         -7.49460      -12.54030       -3.66280
H         -7.84560      -14.26790       -3.41140
H         -6.70910      -13.41780       -2.32840
H         -7.70420      -15.29090       -1.32700
H         -7.31370      -18.53680        0.78190
H         -5.29510      -17.80540       -0.18060
H         -3.92800      -15.95750       -1.39670
H          0.77940      -15.47060       -5.16370
H          1.50970      -14.94760       -3.63510
H          2.32340      -13.54100       -5.50570
H          0.66420      -13.09140       -5.91200
H          1.36770      -12.57070       -4.37820
H        -10.17090       -9.19240        2.46110
H        -10.03790       -8.97620        0.70510
H         -8.40840       -7.44540        2.79120
H         -8.28480       -7.24380        1.03960
H         -9.77630       -6.80260        1.87630
H         -4.76980       -9.03220        0.13050
H         -4.27390       -6.82500       -0.41950
H         -7.71070       -3.05310        2.58710
H         -6.22750       -2.21960        3.09310
H         -8.12320       -1.29560        0.87760
H         -6.63500       -0.47010        1.35050
H         -7.98640       -0.57690        2.48460
H          3.71390       -5.97090       -6.43600
H          2.15170       -6.56930       -7.02700
H          2.37530       -8.57940       -5.55900
H          3.73630       -8.44800       -6.67900
H          3.93680       -7.98440       -4.98630
H          0.57420       -2.26670       -3.00920
H         -1.93150        1.15440       -0.76940
H         -5.21990        4.12180        2.93700
H         -3.99470        3.09280        3.70010
H         -5.98680        1.75230        3.08780
H         -5.82150        2.24760        1.40000
H         -4.58170        1.23260        2.14820
H          7.55190        3.48780       -4.06530
H          7.61560        1.75340       -3.77310
H          7.57920        2.18780       -1.29650
H          7.52410        3.92310       -1.61220
H          8.94630        2.98890       -2.07870
H          3.66990        5.47370       -1.75220
H          4.95470        6.96790       -0.54480
H         10.60640        5.72530       -1.00060
H         10.72190        6.33790        0.66040
H         12.67030        7.08410       -0.68740
H         11.58720        7.85460       -1.85040
H         11.69050        8.47200       -0.19920
H         -0.74070       14.56110        2.76420
H         -0.73780       14.18300        1.03100
H         -2.70900       13.16330        2.14150
H         -1.64930       12.28830        3.25160
H         -1.62920       11.90540        1.52780
H          5.06510       13.55640        2.14390
H          5.70530       14.32620        3.98480
H          4.69130       17.18380        5.66970
H          5.50560       16.19830        6.86980
H          4.47300       15.42310        5.65380
H          7.75610       19.70060        6.90730
H          8.32360       19.62110        5.22080
H          9.09860       18.61260        6.47610
H          9.32880       17.70270        4.32740
H         11.02920       17.28920        2.97380
H         12.85090       16.69950        1.47120
H         11.91580       15.23270        0.88830
