
  xtb     03022215513D
 energy: -368.838381916148 gnorm: 0.000484973009 xtb: 6.4.1 (unknown)
200220  0     0  0            999 V2000
    5.4381   -7.5805   10.0686 C   0  0  0  0  0  0  0  0  0  0  0  0
    5.3871   -6.2547   10.3122 C   0  0  0  0  0  0  0  0  0  0  0  0
    4.4881   -5.5677    9.4461 C   0  0  0  0  0  0  0  0  0  0  0  0
    4.2278   -4.1889    9.3784 C   0  0  0  0  0  0  0  0  0  0  0  0
    4.8556   -3.2490   10.2944 C   0  0  0  0  0  0  0  0  0  0  0  0
    4.7179   -3.4358   12.0175 S   0  0  0  0  0  0  0  0  0  0  0  0
    5.6354   -2.0016   12.3270 C   0  0  0  0  0  0  0  0  0  0  0  0
    5.9609   -1.5741   13.7156 C   0  0  0  0  0  0  0  0  0  0  0  0
    7.2349   -2.2606   14.2140 C   0  0  0  0  0  0  0  0  0  0  0  0
    6.0278   -1.4301   11.1539 C   0  0  0  0  0  0  0  0  0  0  0  0
    6.9671    0.0026   11.0564 Cl  0  0  0  0  0  0  0  0  0  0  0  0
    5.5831   -2.1298    9.9998 C   0  0  0  0  0  0  0  0  0  0  0  0
    6.0054   -1.6416    8.4123 Cl  0  0  0  0  0  0  0  0  0  0  0  0
    3.3493   -3.7609    8.3935 C   0  0  0  0  0  0  0  0  0  0  0  0
    2.7296   -4.6440    7.4750 C   0  0  0  0  0  0  0  0  0  0  0  0
    2.9771   -6.0258    7.5525 C   0  0  0  0  0  0  0  0  0  0  0  0
    2.3317   -6.9576    6.6430 C   0  0  0  0  0  0  0  0  0  0  0  0
    2.4190   -6.7518    4.9172 S   0  0  0  0  0  0  0  0  0  0  0  0
    1.4625   -8.1626    4.6179 C   0  0  0  0  0  0  0  0  0  0  0  0
    1.1614   -8.6138    3.2314 C   0  0  0  0  0  0  0  0  0  0  0  0
    2.2814   -9.5031    2.6866 C   0  0  0  0  0  0  0  0  0  0  0  0
    1.1146   -8.7541    5.7949 C   0  0  0  0  0  0  0  0  0  0  0  0
    1.6004   -8.0732    6.9437 C   0  0  0  0  0  0  0  0  0  0  0  0
    1.2103   -8.5715    8.5360 Cl  0  0  0  0  0  0  0  0  0  0  0  0
    0.1632  -10.1779    5.9043 Cl  0  0  0  0  0  0  0  0  0  0  0  0
    3.8603   -6.4526    8.5377 C   0  0  0  0  0  0  0  0  0  0  0  0
    4.4016   -8.0889    8.7824 S   0  0  0  0  0  0  0  0  0  0  0  0
    1.8706   -3.9609    6.5875 C   0  0  0  0  0  0  0  0  0  0  0  0
    1.8060   -2.6083    6.7974 C   0  0  0  0  0  0  0  0  0  0  0  0
    2.8195   -2.1215    8.1442 S   0  0  0  0  0  0  0  0  0  0  0  0
    1.0677   -1.6914    6.0070 C   0  0  0  0  0  0  0  0  0  0  0  0
    0.4077   -2.2678    4.5086 S   0  0  0  0  0  0  0  0  0  0  0  0
   -0.2618   -0.7195    4.0956 C   0  0  0  0  0  0  0  0  0  0  0  0
    0.0046    0.2090    5.1118 C   0  0  0  0  0  0  0  0  0  0  0  0
    0.7697   -0.3368    6.1873 C   0  0  0  0  0  0  0  0  0  0  0  0
    1.1271    0.4994    7.2654 C   0  0  0  0  0  0  0  0  0  0  0  0
    0.7789    1.8179    7.2704 C   0  0  0  0  0  0  0  0  0  0  0  0
    1.1584    2.7314    8.3897 C   0  0  0  0  0  0  0  0  0  0  0  0
    0.0332    2.3613    6.1773 C   0  0  0  0  0  0  0  0  0  0  0  0
   -0.2262    3.6902    6.2775 O   0  0  0  0  0  0  0  0  0  0  0  0
   -0.8167    4.3365    5.1779 C   0  0  0  0  0  0  0  0  0  0  0  0
   -0.3659    1.5666    5.1339 C   0  0  0  0  0  0  0  0  0  0  0  0
   -0.9046   -0.5249    2.8532 C   0  0  0  0  0  0  0  0  0  0  0  0
   -0.9966   -1.5003    1.9158 C   0  0  0  0  0  0  0  0  0  0  0  0
   -1.5750   -1.3945    0.6297 C   0  0  0  0  0  0  0  0  0  0  0  0
   -1.6147   -2.3989   -0.3001 C   0  0  0  0  0  0  0  0  0  0  0  0
   -2.2048   -2.0254   -1.5244 C   0  0  0  0  0  0  0  0  0  0  0  0
   -2.3277   -2.8172   -2.6850 C   0  0  0  0  0  0  0  0  0  0  0  0
   -1.9313   -4.2124   -2.6735 C   0  0  0  0  0  0  0  0  0  0  0  0
   -0.7793   -4.8282   -3.8207 S   0  0  0  0  0  0  0  0  0  0  0  0
   -0.7946   -6.4041   -3.1092 C   0  0  0  0  0  0  0  0  0  0  0  0
    0.0944   -7.4826   -3.6220 C   0  0  0  0  0  0  0  0  0  0  0  0
    1.5357   -7.2699   -3.1529 C   0  0  0  0  0  0  0  0  0  0  0  0
   -1.6475   -6.4366   -2.0463 C   0  0  0  0  0  0  0  0  0  0  0  0
   -1.9292   -7.8305   -1.0839 Cl  0  0  0  0  0  0  0  0  0  0  0  0
   -2.2960   -5.1979   -1.7978 C   0  0  0  0  0  0  0  0  0  0  0  0
   -3.4725   -4.9999   -0.5617 Cl  0  0  0  0  0  0  0  0  0  0  0  0
   -2.7145   -2.1618   -3.8416 C   0  0  0  0  0  0  0  0  0  0  0  0
   -3.0687   -0.7907   -3.8656 C   0  0  0  0  0  0  0  0  0  0  0  0
   -3.1417   -0.0489   -2.6623 C   0  0  0  0  0  0  0  0  0  0  0  0
   -3.7309    1.2699   -2.6404 C   0  0  0  0  0  0  0  0  0  0  0  0
   -3.1786    2.4902   -1.5289 S   0  0  0  0  0  0  0  0  0  0  0  0
   -4.3141    3.6580   -2.1034 C   0  0  0  0  0  0  0  0  0  0  0  0
   -4.4357    4.9980   -1.4663 C   0  0  0  0  0  0  0  0  0  0  0  0
   -5.1877    4.8928   -0.1383 C   0  0  0  0  0  0  0  0  0  0  0  0
   -5.0897    3.1156   -3.0844 C   0  0  0  0  0  0  0  0  0  0  0  0
   -4.7831    1.7628   -3.3782 C   0  0  0  0  0  0  0  0  0  0  0  0
   -5.7907    0.8519   -4.4313 Cl  0  0  0  0  0  0  0  0  0  0  0  0
   -6.3240    3.9764   -3.9126 Cl  0  0  0  0  0  0  0  0  0  0  0  0
   -2.6179   -0.6692   -1.5301 C   0  0  0  0  0  0  0  0  0  0  0  0
   -2.3065    0.0801    0.0140 S   0  0  0  0  0  0  0  0  0  0  0  0
   -3.2216   -0.3226   -5.1849 C   0  0  0  0  0  0  0  0  0  0  0  0
   -3.0781   -1.2888   -6.1498 C   0  0  0  0  0  0  0  0  0  0  0  0
   -2.7377   -2.8546   -5.4400 S   0  0  0  0  0  0  0  0  0  0  0  0
   -3.1222   -1.0457   -7.5441 C   0  0  0  0  0  0  0  0  0  0  0  0
   -3.6302    0.5317   -8.0468 S   0  0  0  0  0  0  0  0  0  0  0  0
   -3.1477    0.2737   -9.6892 C   0  0  0  0  0  0  0  0  0  0  0  0
   -2.7302   -1.0497   -9.8640 C   0  0  0  0  0  0  0  0  0  0  0  0
   -2.7036   -1.7988   -8.6463 C   0  0  0  0  0  0  0  0  0  0  0  0
   -2.2462   -3.1318   -8.6732 C   0  0  0  0  0  0  0  0  0  0  0  0
   -1.8401   -3.7064   -9.8417 C   0  0  0  0  0  0  0  0  0  0  0  0
   -1.3549   -5.1187   -9.8998 C   0  0  0  0  0  0  0  0  0  0  0  0
   -1.8697   -2.9501  -11.0563 C   0  0  0  0  0  0  0  0  0  0  0  0
   -1.4424   -3.6330  -12.1533 O   0  0  0  0  0  0  0  0  0  0  0  0
   -1.4270   -2.9713  -13.3928 C   0  0  0  0  0  0  0  0  0  0  0  0
   -2.2972   -1.6487  -11.0642 C   0  0  0  0  0  0  0  0  0  0  0  0
   -3.2171    1.3226  -10.6539 C   0  0  0  0  0  0  0  0  0  0  0  0
   -3.1371    2.6471  -10.3858 C   0  0  0  0  0  0  0  0  0  0  0  0
   -2.7645    3.2078   -9.1164 C   0  0  0  0  0  0  0  0  0  0  0  0
   -1.4198    2.6042   -8.2186 S   0  0  0  0  0  0  0  0  0  0  0  0
   -1.7680    3.5972   -6.8263 C   0  0  0  0  0  0  0  0  0  0  0  0
   -2.8343    4.4647   -7.1139 C   0  0  0  0  0  0  0  0  0  0  0  0
   -3.3810    4.2453   -8.4179 C   0  0  0  0  0  0  0  0  0  0  0  0
   -4.4941    4.9978   -8.8499 C   0  0  0  0  0  0  0  0  0  0  0  0
   -5.0374    5.9570   -8.0502 C   0  0  0  0  0  0  0  0  0  0  0  0
   -6.2070    6.7845   -8.4756 C   0  0  0  0  0  0  0  0  0  0  0  0
   -4.4776    6.1892   -6.7545 C   0  0  0  0  0  0  0  0  0  0  0  0
   -5.0905    7.1820   -6.0562 O   0  0  0  0  0  0  0  0  0  0  0  0
   -4.6295    7.4800   -4.7637 C   0  0  0  0  0  0  0  0  0  0  0  0
   -3.4118    5.4565   -6.2969 C   0  0  0  0  0  0  0  0  0  0  0  0
   -1.0295    3.2768   -5.6662 C   0  0  0  0  0  0  0  0  0  0  0  0
   -1.0926    3.7930   -4.4129 C   0  0  0  0  0  0  0  0  0  0  0  0
   -0.3989    3.2251   -3.3112 C   0  0  0  0  0  0  0  0  0  0  0  0
   -0.3977    3.6757   -2.0189 C   0  0  0  0  0  0  0  0  0  0  0  0
    0.2719    2.8247   -1.1099 C   0  0  0  0  0  0  0  0  0  0  0  0
    0.4743    3.0240    0.2650 C   0  0  0  0  0  0  0  0  0  0  0  0
   -0.0357    4.2034    0.9461 C   0  0  0  0  0  0  0  0  0  0  0  0
   -1.7252    4.6091    0.9030 S   0  0  0  0  0  0  0  0  0  0  0  0
   -1.4947    6.0351    1.8618 C   0  0  0  0  0  0  0  0  0  0  0  0
   -2.6375    6.9271    2.2036 C   0  0  0  0  0  0  0  0  0  0  0  0
   -3.5690    6.2930    3.2373 C   0  0  0  0  0  0  0  0  0  0  0  0
   -0.1830    6.1587    2.2069 C   0  0  0  0  0  0  0  0  0  0  0  0
    0.4409    7.4391    3.1645 Cl  0  0  0  0  0  0  0  0  0  0  0  0
    0.6465    5.1248    1.6900 C   0  0  0  0  0  0  0  0  0  0  0  0
    2.3454    5.1089    1.9251 Cl  0  0  0  0  0  0  0  0  0  0  0  0
    1.1873    2.0447    0.9449 C   0  0  0  0  0  0  0  0  0  0  0  0
    1.7147    0.8955    0.3145 C   0  0  0  0  0  0  0  0  0  0  0  0
    1.5670    0.7227   -1.0762 C   0  0  0  0  0  0  0  0  0  0  0  0
    2.2570   -0.3632   -1.7536 C   0  0  0  0  0  0  0  0  0  0  0  0
    3.9423   -0.6468   -1.3990 S   0  0  0  0  0  0  0  0  0  0  0  0
    4.0538   -1.9534   -2.5261 C   0  0  0  0  0  0  0  0  0  0  0  0
    5.3374   -2.6705   -2.7592 C   0  0  0  0  0  0  0  0  0  0  0  0
    6.1908   -1.9396   -3.7982 C   0  0  0  0  0  0  0  0  0  0  0  0
    2.8548   -2.1389   -3.1444 C   0  0  0  0  0  0  0  0  0  0  0  0
    1.8402   -1.2395   -2.7174 C   0  0  0  0  0  0  0  0  0  0  0  0
    0.2491   -1.3451   -3.3362 Cl  0  0  0  0  0  0  0  0  0  0  0  0
    2.5605   -3.3529   -4.3208 Cl  0  0  0  0  0  0  0  0  0  0  0  0
    0.8206    1.6834   -1.7511 C   0  0  0  0  0  0  0  0  0  0  0  0
    0.4848    1.7157   -3.4584 S   0  0  0  0  0  0  0  0  0  0  0  0
    2.3352    0.0265    1.2596 C   0  0  0  0  0  0  0  0  0  0  0  0
    2.3027    0.5052    2.5200 C   0  0  0  0  0  0  0  0  0  0  0  0
    1.5211    2.0379    2.6524 S   0  0  0  0  0  0  0  0  0  0  0  0
    6.0301   -8.3199   10.5714 H   0  0  0  0  0  0  0  0  0  0  0  0
    5.9683   -5.7659   11.0721 H   0  0  0  0  0  0  0  0  0  0  0  0
    5.1299   -1.8247   14.3769 H   0  0  0  0  0  0  0  0  0  0  0  0
    6.1027   -0.4918   13.7241 H   0  0  0  0  0  0  0  0  0  0  0  0
    8.0736   -2.0116   13.5689 H   0  0  0  0  0  0  0  0  0  0  0  0
    7.1056   -3.3404   14.2164 H   0  0  0  0  0  0  0  0  0  0  0  0
    7.4639   -1.9344   15.2249 H   0  0  0  0  0  0  0  0  0  0  0  0
    0.2241   -9.1732    3.2417 H   0  0  0  0  0  0  0  0  0  0  0  0
    1.0417   -7.7424    2.5853 H   0  0  0  0  0  0  0  0  0  0  0  0
    2.4058  -10.3799    3.3170 H   0  0  0  0  0  0  0  0  0  0  0  0
    2.0407   -9.8297    1.6785 H   0  0  0  0  0  0  0  0  0  0  0  0
    3.2207   -8.9555    2.6629 H   0  0  0  0  0  0  0  0  0  0  0  0
    1.3035   -4.4462    5.8143 H   0  0  0  0  0  0  0  0  0  0  0  0
    1.6880    0.0922    8.0916 H   0  0  0  0  0  0  0  0  0  0  0  0
    1.7325    2.2012    9.1443 H   0  0  0  0  0  0  0  0  0  0  0  0
    1.7476    3.5628    8.0062 H   0  0  0  0  0  0  0  0  0  0  0  0
    0.2647    3.1534    8.8469 H   0  0  0  0  0  0  0  0  0  0  0  0
   -0.2366    4.1742    4.2642 H   0  0  0  0  0  0  0  0  0  0  0  0
   -0.8158    5.3975    5.4230 H   0  0  0  0  0  0  0  0  0  0  0  0
   -1.8461    3.9987    5.0176 H   0  0  0  0  0  0  0  0  0  0  0  0
   -0.9509    1.9584    4.3191 H   0  0  0  0  0  0  0  0  0  0  0  0
   -1.3118    0.4552    2.6452 H   0  0  0  0  0  0  0  0  0  0  0  0
   -0.5783   -2.4740    2.1421 H   0  0  0  0  0  0  0  0  0  0  0  0
   -1.1943   -3.3705   -0.1160 H   0  0  0  0  0  0  0  0  0  0  0  0
   -0.2747   -8.4437   -3.2600 H   0  0  0  0  0  0  0  0  0  0  0  0
    0.0678   -7.4856   -4.7134 H   0  0  0  0  0  0  0  0  0  0  0  0
    1.5847   -7.2812   -2.0668 H   0  0  0  0  0  0  0  0  0  0  0  0
    1.9080   -6.3117   -3.5075 H   0  0  0  0  0  0  0  0  0  0  0  0
    2.1754   -8.0588   -3.5392 H   0  0  0  0  0  0  0  0  0  0  0  0
   -3.4427    5.4134   -1.2868 H   0  0  0  0  0  0  0  0  0  0  0  0
   -4.9834    5.6596   -2.1394 H   0  0  0  0  0  0  0  0  0  0  0  0
   -5.2926    5.8750    0.3142 H   0  0  0  0  0  0  0  0  0  0  0  0
   -6.1789    4.4778   -0.3016 H   0  0  0  0  0  0  0  0  0  0  0  0
   -4.6442    4.2441    0.5435 H   0  0  0  0  0  0  0  0  0  0  0  0
   -3.3480    0.7154   -5.4342 H   0  0  0  0  0  0  0  0  0  0  0  0
   -2.2209   -3.7024   -7.7581 H   0  0  0  0  0  0  0  0  0  0  0  0
   -1.9759   -5.6997  -10.5799 H   0  0  0  0  0  0  0  0  0  0  0  0
   -0.3376   -5.1477  -10.2871 H   0  0  0  0  0  0  0  0  0  0  0  0
   -1.3772   -5.5740   -8.9138 H   0  0  0  0  0  0  0  0  0  0  0  0
   -2.4309   -2.6507  -13.6901 H   0  0  0  0  0  0  0  0  0  0  0  0
   -1.0545   -3.6992  -14.1120 H   0  0  0  0  0  0  0  0  0  0  0  0
   -0.7591   -2.1037  -13.3768 H   0  0  0  0  0  0  0  0  0  0  0  0
   -2.3167   -1.0640  -11.9692 H   0  0  0  0  0  0  0  0  0  0  0  0
   -3.3802    1.0136  -11.6786 H   0  0  0  0  0  0  0  0  0  0  0  0
   -3.3626    3.3533  -11.1752 H   0  0  0  0  0  0  0  0  0  0  0  0
   -4.9072    4.8067   -9.8288 H   0  0  0  0  0  0  0  0  0  0  0  0
   -7.0295    6.6541   -7.7743 H   0  0  0  0  0  0  0  0  0  0  0  0
   -5.9403    7.8403   -8.4686 H   0  0  0  0  0  0  0  0  0  0  0  0
   -6.5374    6.5042   -9.4720 H   0  0  0  0  0  0  0  0  0  0  0  0
   -4.7098    6.6104   -4.1043 H   0  0  0  0  0  0  0  0  0  0  0  0
   -3.5924    7.8320   -4.7767 H   0  0  0  0  0  0  0  0  0  0  0  0
   -5.2756    8.2754   -4.3950 H   0  0  0  0  0  0  0  0  0  0  0  0
   -3.0000    5.6364   -5.3201 H   0  0  0  0  0  0  0  0  0  0  0  0
   -0.3452    2.4453   -5.8041 H   0  0  0  0  0  0  0  0  0  0  0  0
   -1.7158    4.6400   -4.1723 H   0  0  0  0  0  0  0  0  0  0  0  0
   -0.8706    4.5952   -1.7268 H   0  0  0  0  0  0  0  0  0  0  0  0
   -2.2381    7.8646    2.5934 H   0  0  0  0  0  0  0  0  0  0  0  0
   -3.2049    7.1430    1.2957 H   0  0  0  0  0  0  0  0  0  0  0  0
   -4.4167    6.9467    3.4246 H   0  0  0  0  0  0  0  0  0  0  0  0
   -3.9392    5.3371    2.8753 H   0  0  0  0  0  0  0  0  0  0  0  0
   -3.0413    6.1322    4.1731 H   0  0  0  0  0  0  0  0  0  0  0  0
    5.8891   -2.7404   -1.8203 H   0  0  0  0  0  0  0  0  0  0  0  0
    5.1146   -3.6788   -3.1130 H   0  0  0  0  0  0  0  0  0  0  0  0
    7.1231   -2.4742   -3.9587 H   0  0  0  0  0  0  0  0  0  0  0  0
    5.6583   -1.8743   -4.7435 H   0  0  0  0  0  0  0  0  0  0  0  0
    6.4193   -0.9326   -3.4573 H   0  0  0  0  0  0  0  0  0  0  0  0
    2.7684   -0.9228    1.0050 H   0  0  0  0  0  0  0  0  0  0  0  0
    2.6990    0.0557    3.4092 H   0  0  0  0  0  0  0  0  0  0  0  0
  1  2  2  0  0  0  0
  2  3  1  0  0  0  0
  3  4  2  0  0  0  0
  4  5  1  0  0  0  0
  5  6  1  0  0  0  0
  6  7  1  0  0  0  0
  7  8  1  0  0  0  0
  8  9  1  0  0  0  0
  7 10  2  0  0  0  0
 10 11  1  0  0  0  0
 10 12  1  0  0  0  0
 12 13  1  0  0  0  0
  4 14  1  0  0  0  0
 14 15  2  0  0  0  0
 15 16  1  0  0  0  0
 16 17  1  0  0  0  0
 17 18  1  0  0  0  0
 18 19  1  0  0  0  0
 19 20  1  0  0  0  0
 20 21  1  0  0  0  0
 19 22  2  0  0  0  0
 22 23  1  0  0  0  0
 23 24  1  0  0  0  0
 22 25  1  0  0  0  0
 16 26  2  0  0  0  0
 26 27  1  0  0  0  0
 15 28  1  0  0  0  0
 28 29  2  0  0  0  0
 29 30  1  0  0  0  0
 29 31  1  0  0  0  0
 31 32  1  0  0  0  0
 32 33  1  0  0  0  0
 33 34  2  0  0  0  0
 34 35  1  0  0  0  0
 35 36  1  0  0  0  0
 36 37  2  0  0  0  0
 37 38  1  0  0  0  0
 37 39  1  0  0  0  0
 39 40  1  0  0  0  0
 40 41  1  0  0  0  0
 39 42  2  0  0  0  0
 33 43  1  0  0  0  0
 43 44  2  0  0  0  0
 44 45  1  0  0  0  0
 45 46  2  0  0  0  0
 46 47  1  0  0  0  0
 47 48  2  0  0  0  0
 48 49  1  0  0  0  0
 49 50  1  0  0  0  0
 50 51  1  0  0  0  0
 51 52  1  0  0  0  0
 52 53  1  0  0  0  0
 51 54  2  0  0  0  0
 54 55  1  0  0  0  0
 54 56  1  0  0  0  0
 56 57  1  0  0  0  0
 48 58  1  0  0  0  0
 58 59  2  0  0  0  0
 59 60  1  0  0  0  0
 60 61  1  0  0  0  0
 61 62  1  0  0  0  0
 62 63  1  0  0  0  0
 63 64  1  0  0  0  0
 64 65  1  0  0  0  0
 63 66  2  0  0  0  0
 66 67  1  0  0  0  0
 67 68  1  0  0  0  0
 66 69  1  0  0  0  0
 60 70  2  0  0  0  0
 70 71  1  0  0  0  0
 59 72  1  0  0  0  0
 72 73  2  0  0  0  0
 73 74  1  0  0  0  0
 73 75  1  0  0  0  0
 75 76  1  0  0  0  0
 76 77  1  0  0  0  0
 77 78  2  0  0  0  0
 78 79  1  0  0  0  0
 79 80  1  0  0  0  0
 80 81  2  0  0  0  0
 81 82  1  0  0  0  0
 81 83  1  0  0  0  0
 83 84  1  0  0  0  0
 84 85  1  0  0  0  0
 83 86  2  0  0  0  0
 77 87  1  0  0  0  0
 87 88  2  0  0  0  0
 88 89  1  0  0  0  0
 89 90  1  0  0  0  0
 90 91  1  0  0  0  0
 91 92  2  0  0  0  0
 92 93  1  0  0  0  0
 93 94  1  0  0  0  0
 94 95  2  0  0  0  0
 95 96  1  0  0  0  0
 95 97  1  0  0  0  0
 97 98  1  0  0  0  0
 98 99  1  0  0  0  0
 97100  2  0  0  0  0
 91101  1  0  0  0  0
101102  2  0  0  0  0
102103  1  0  0  0  0
103104  2  0  0  0  0
104105  1  0  0  0  0
105106  2  0  0  0  0
106107  1  0  0  0  0
107108  1  0  0  0  0
108109  1  0  0  0  0
109110  1  0  0  0  0
110111  1  0  0  0  0
109112  2  0  0  0  0
112113  1  0  0  0  0
112114  1  0  0  0  0
114115  1  0  0  0  0
106116  1  0  0  0  0
116117  2  0  0  0  0
117118  1  0  0  0  0
118119  1  0  0  0  0
119120  1  0  0  0  0
120121  1  0  0  0  0
121122  1  0  0  0  0
122123  1  0  0  0  0
121124  2  0  0  0  0
124125  1  0  0  0  0
125126  1  0  0  0  0
124127  1  0  0  0  0
118128  2  0  0  0  0
128129  1  0  0  0  0
117130  1  0  0  0  0
130131  2  0  0  0  0
131132  1  0  0  0  0
 27  1  1  0  0  0  0
 35 31  2  0  0  0  0
 71 45  1  0  0  0  0
 79 75  2  0  0  0  0
 93 89  2  0  0  0  0
129103  1  0  0  0  0
 26  3  1  0  0  0  0
 42 34  1  0  0  0  0
 70 47  1  0  0  0  0
 86 78  1  0  0  0  0
100 92  1  0  0  0  0
128105  1  0  0  0  0
 12  5  2  0  0  0  0
 30 14  1  0  0  0  0
 56 49  2  0  0  0  0
 74 58  1  0  0  0  0
114107  2  0  0  0  0
132116  1  0  0  0  0
 23 17  2  0  0  0  0
 67 61  2  0  0  0  0
125119  2  0  0  0  0
  1133  1  0  0  0  0
  2134  1  0  0  0  0
  8135  1  0  0  0  0
  8136  1  0  0  0  0
  9137  1  0  0  0  0
  9138  1  0  0  0  0
  9139  1  0  0  0  0
 20140  1  0  0  0  0
 20141  1  0  0  0  0
 21142  1  0  0  0  0
 21143  1  0  0  0  0
 21144  1  0  0  0  0
 28145  1  0  0  0  0
 36146  1  0  0  0  0
 38147  1  0  0  0  0
 38148  1  0  0  0  0
 38149  1  0  0  0  0
 41150  1  0  0  0  0
 41151  1  0  0  0  0
 41152  1  0  0  0  0
 42153  1  0  0  0  0
 43154  1  0  0  0  0
 44155  1  0  0  0  0
 46156  1  0  0  0  0
 52157  1  0  0  0  0
 52158  1  0  0  0  0
 53159  1  0  0  0  0
 53160  1  0  0  0  0
 53161  1  0  0  0  0
 64162  1  0  0  0  0
 64163  1  0  0  0  0
 65164  1  0  0  0  0
 65165  1  0  0  0  0
 65166  1  0  0  0  0
 72167  1  0  0  0  0
 80168  1  0  0  0  0
 82169  1  0  0  0  0
 82170  1  0  0  0  0
 82171  1  0  0  0  0
 85172  1  0  0  0  0
 85173  1  0  0  0  0
 85174  1  0  0  0  0
 86175  1  0  0  0  0
 87176  1  0  0  0  0
 88177  1  0  0  0  0
 94178  1  0  0  0  0
 96179  1  0  0  0  0
 96180  1  0  0  0  0
 96181  1  0  0  0  0
 99182  1  0  0  0  0
 99183  1  0  0  0  0
 99184  1  0  0  0  0
100185  1  0  0  0  0
101186  1  0  0  0  0
102187  1  0  0  0  0
104188  1  0  0  0  0
110189  1  0  0  0  0
110190  1  0  0  0  0
111191  1  0  0  0  0
111192  1  0  0  0  0
111193  1  0  0  0  0
122194  1  0  0  0  0
122195  1  0  0  0  0
123196  1  0  0  0  0
123197  1  0  0  0  0
123198  1  0  0  0  0
130199  1  0  0  0  0
131200  1  0  0  0  0
M  END
