198

C         10.21710       -5.18580        7.46280
S         10.00250       -3.78760        8.41090
C          8.65490       -3.23370        7.45730
C          8.41840       -4.12340        6.40640
C          9.31970       -5.24060        6.41900
C          9.26150       -6.20560        5.38860
C          8.34710       -6.10120        4.38200
C          8.34180       -7.08340        3.24950
C          7.42970       -5.00630        4.39180
O          6.49210       -4.86740        3.38330
C          5.40490       -5.76470        3.46460
C          7.48410       -4.03490        5.35440
C          8.12010       -1.95200        7.78320
C          6.87640       -1.43940        7.61340
C          5.65250       -2.07540        7.28600
S          5.33940       -3.76460        7.52670
C          3.70420       -3.63830        6.95210
C          3.39310       -2.31040        6.65120
C          4.49230       -1.42490        6.84270
C          4.32560       -0.05570        6.54840
C          3.12760        0.42440        6.10510
C          2.93460        1.87100        5.77550
C          2.01510       -0.46530        5.96620
O          0.85680        0.12380        5.55490
C         -0.28820       -0.68410        5.41250
C          2.14420       -1.79940        6.24180
C          2.87180       -4.79690        6.86880
C          1.96520       -5.06420        5.90150
C          1.84620       -4.38830        4.64360
C          2.79740       -3.69130        3.95810
C          2.39310       -3.26700        2.67090
C          3.18180       -2.61940        1.70260
C          4.58540       -2.28820        1.98130
C          5.60010       -2.74110        1.13950
C          6.92010       -2.50950        1.44610
C          7.29600       -1.79790        2.58740
S          9.03850       -1.64670        2.81900
C          9.34510       -0.99410        4.50170
C          9.39620        0.52060        4.54470
C          6.27020       -1.30510        3.38490
F          6.52770       -0.54680        4.48030
C          4.94020       -1.55440        3.10640
C          2.58160       -2.37740        0.47790
C          1.23200       -2.71300        0.20540
C          0.44540       -3.37150        1.16940
C         -0.91520       -3.80590        0.83040
C         -1.31060       -5.13030        1.01070
C         -2.54030       -5.56310        0.56320
C         -3.42330       -4.69770       -0.07940
S         -4.95340       -5.36620       -0.65590
C         -5.26260       -4.42440       -2.20550
C         -6.08140       -5.28110       -3.15060
C         -3.04320       -3.36390       -0.19710
C         -1.81320       -2.92050        0.24200
F         -3.86600       -2.46080       -0.77350
C          1.06060       -3.65240        2.37800
S          0.35390       -4.51860        3.71870
C          0.86290       -2.37300       -1.11620
C          1.86420       -1.80390       -1.85100
S          3.33620       -1.62090       -0.90630
C          1.76460       -1.35730       -3.19720
S          2.77710       -0.08770       -3.80340
C          1.85800        0.06280       -5.25930
C          0.85500       -0.90290       -5.31160
C          0.81120       -1.72990       -4.15000
C         -0.11940       -2.79290       -4.11670
C         -1.01630       -2.97190       -5.12720
C         -2.02310       -4.07750       -5.10410
C         -1.00060       -2.09630       -6.26040
O         -1.95910       -2.35680       -7.19240
C         -2.02810       -1.52470       -8.32180
C         -0.06100       -1.10980       -6.36620
C          2.08400        1.10410       -6.22960
C          1.09450        1.90120       -6.67480
C         -0.20770        2.00970       -6.06950
C         -1.36230        2.47270       -6.62590
C         -2.44620        2.57360       -5.71120
C         -3.76320        2.99790       -5.95640
C         -4.23200        3.29440       -7.31560
C         -4.05060        2.36880       -8.34240
C         -4.50120        2.63290       -9.61710
C         -5.15620        3.82500       -9.92210
S         -5.73640        4.01420      -11.58270
C         -5.48410        5.78750      -11.96110
C         -4.03310        6.19880      -11.81400
C         -5.35290        4.72870       -8.88270
F         -6.00530        5.89380       -9.09090
C         -4.89280        4.48280       -7.60450
C         -4.60360        3.08840       -4.85710
C         -4.21140        2.73380       -3.54080
C         -2.90640        2.27180       -3.29970
C         -2.43690        1.87050       -1.96800
C         -1.21090        2.32900       -1.49150
C         -0.71090        1.92160       -0.27070
C         -1.43820        1.06010        0.54030
S         -0.92300        0.44190        2.10900
C          0.60930        1.36030        2.48050
C          1.83410        0.71850        1.85720
C         -2.68690        0.64250        0.07310
C         -3.18010        1.01180       -1.15810
F         -3.43700       -0.15360        0.86210
C         -2.05660        2.22390       -4.39650
S         -0.40330        1.68700       -4.35460
C         -5.25610        2.92790       -2.60420
C         -6.41830        3.39050       -3.15430
S         -6.26890        3.60380       -4.89450
C         -7.66570        3.67480       -2.53180
S         -9.09960        3.70330       -3.50250
C        -10.12660        4.01090       -2.14660
C         -9.37320        4.10560       -0.97460
C         -7.97070        3.92800       -1.19090
C         -7.09220        4.06920       -0.09430
C         -7.56780        4.31540        1.15890
C         -6.65820        4.46510        2.33540
C         -8.97750        4.44020        1.37430
O         -9.32930        4.66630        2.67040
C        -10.69280        4.79510        2.98320
C         -9.85580        4.35200        0.32950
C        -11.54330        4.13490       -2.29550
C        -12.20330        4.04820       -3.45140
H         10.98550       -5.89020        7.71100
H          9.97770       -7.01450        5.39520
H          9.34940       -7.45100        3.06830
H          7.71070       -7.94290        3.48120
H          7.96960       -6.61060        2.34330
H          4.71160       -5.46580        2.68040
H          5.70950       -6.80240        3.30300
H          4.90580       -5.69510        4.43770
H          6.81210       -3.19590        5.28120
H          8.84770       -1.28710        8.23530
H          6.77250       -0.37680        7.79590
H          5.15960        0.61830        6.66640
H          3.79810        2.45410        6.08420
H          2.04370        2.25360        6.27000
H          2.79360        1.99640        4.70230
H         -1.08690       -0.01920        5.08820
H         -0.56830       -1.15200        6.36080
H         -0.14110       -1.45860        4.65330
H          1.30780       -2.47280        6.17460
H          2.99430       -5.52200        7.66440
H          1.29850       -5.90540        6.03850
H          3.79010       -3.53220        4.33220
H          5.34900       -3.31170        0.25870
H          7.70270       -2.89130        0.80920
H          8.59400       -1.40060        5.17260
H         10.31420       -1.42130        4.76300
H         10.14650        0.89500        3.85190
H          9.65320        0.84710        5.55050
H          8.43340        0.94830        4.27960
H          4.19270       -1.15210        3.77420
H         -0.63370       -5.83520        1.46780
H         -2.83320       -6.59450        0.68370
H         -4.29100       -4.18560       -2.63520
H         -5.78820       -3.50560       -1.94960
H         -7.03560       -5.54220       -2.69890
H         -6.27010       -4.73420       -4.07220
H         -5.55080       -6.19990       -3.39020
H         -1.57220       -1.87470        0.14370
H         -0.12710       -2.51520       -1.50110
H         -0.10030       -3.49480       -3.29820
H         -1.91190       -4.70530       -5.98670
H         -3.02990       -3.66220       -5.12890
H         -1.90660       -4.68900       -4.21290
H         -2.15910       -0.47540       -8.03600
H         -2.89720       -1.85930       -8.88610
H         -1.13290       -1.61650       -8.94570
H          0.00810       -0.47580       -7.23480
H          3.08770        1.22230       -6.61600
H          1.27970        2.57430       -7.50180
H         -1.44390        2.74590       -7.66380
H         -3.56860        1.42680       -8.12950
H         -4.35970        1.91250      -10.40800
H         -5.81260        5.86830      -12.99740
H         -6.14310        6.38220      -11.33300
H         -3.70730        6.10800      -10.77950
H         -3.91350        7.23570      -12.12130
H         -3.39410        5.57340      -12.43430
H         -5.05840        5.22880       -6.84330
H         -0.63710        3.02890       -2.07860
H          0.25240        2.28920        0.04150
H          0.46740        2.39360        2.16710
H          0.67480        1.32790        3.56780
H          1.74080        0.64430        0.77570
H          1.97060       -0.28420        2.25510
H          2.72330        1.30370        2.08620
H         -4.12500        0.60600       -1.48290
H         -5.14670        2.70080       -1.56170
H         -6.02790        4.00630       -0.25090
H         -6.88650        3.70460        3.08050
H         -6.81110        5.43510        2.80580
H         -5.61800        4.37010        2.03600
H        -10.73580        4.94810        4.06050
H        -11.25180        3.89000        2.72380
H        -11.14220        5.65650        2.47790
H        -10.91650        4.47060        0.47630
H        -12.09100        4.31320       -1.37970
H        -13.27240        4.15120       -3.49980
H        -11.68770        3.87260       -4.38100
