
  xtb     03022209323D
 energy: -258.306550344235 gnorm: 0.000266766932 xtb: 6.4.1 (unknown)
176192  0     0  0            999 V2000
    2.9686    0.2632    8.2042 C   0  0  0  0  0  0  0  0  0  0  0  0
    2.2682    1.4353    8.4586 C   0  0  0  0  0  0  0  0  0  0  0  0
    0.9894    1.7943    8.0939 N   0  0  0  0  0  0  0  0  0  0  0  0
    0.0657    0.8804    7.4771 C   0  0  0  0  0  0  0  0  0  0  0  0
   -0.7384    0.0970    8.5148 C   0  0  0  0  0  0  0  0  0  0  0  0
    0.7324    3.0630    8.5722 C   0  0  0  0  0  0  0  0  0  0  0  0
    1.8872    3.5385    9.2446 C   0  0  0  0  0  0  0  0  0  0  0  0
    2.8691    2.4961    9.1715 C   0  0  0  0  0  0  0  0  0  0  0  0
    4.1753    2.3820    9.6292 C   0  0  0  0  0  0  0  0  0  0  0  0
    4.8660    1.2161    9.3690 C   0  0  0  0  0  0  0  0  0  0  0  0
    4.2678    0.1737    8.6640 C   0  0  0  0  0  0  0  0  0  0  0  0
    1.9245    4.8083    9.8029 C   0  0  0  0  0  0  0  0  0  0  0  0
    0.8117    5.6136    9.6766 C   0  0  0  0  0  0  0  0  0  0  0  0
   -0.3088    5.1631    8.9912 C   0  0  0  0  0  0  0  0  0  0  0  0
   -0.3876    3.8938    8.4251 C   0  0  0  0  0  0  0  0  0  0  0  0
   -1.5913    3.5251    7.6754 C   0  0  0  0  0  0  0  0  0  0  0  0
   -2.1526    4.3207    6.7679 C   0  0  0  0  0  0  0  0  0  0  0  0
   -3.3351    3.9201    5.9814 C   0  0  0  0  0  0  0  0  0  0  0  0
   -3.2506    3.0782    4.8708 C   0  0  0  0  0  0  0  0  0  0  0  0
   -2.1300    2.5123    4.2754 N   0  0  0  0  0  0  0  0  0  0  0  0
   -0.8743    3.2313    4.2135 C   0  0  0  0  0  0  0  0  0  0  0  0
   -1.0012    4.4869    3.3508 C   0  0  0  0  0  0  0  0  0  0  0  0
   -2.5742    1.6885    3.2504 C   0  0  0  0  0  0  0  0  0  0  0  0
   -3.9832    1.7681    3.1531 C   0  0  0  0  0  0  0  0  0  0  0  0
   -4.4178    2.6413    4.2073 C   0  0  0  0  0  0  0  0  0  0  0  0
   -5.6721    3.0720    4.6171 C   0  0  0  0  0  0  0  0  0  0  0  0
   -5.7502    3.9353    5.6906 C   0  0  0  0  0  0  0  0  0  0  0  0
   -4.6016    4.3436    6.3604 C   0  0  0  0  0  0  0  0  0  0  0  0
   -4.6752    1.0957    2.1555 C   0  0  0  0  0  0  0  0  0  0  0  0
   -3.9546    0.3440    1.2485 C   0  0  0  0  0  0  0  0  0  0  0  0
   -2.5809    0.2083    1.3850 C   0  0  0  0  0  0  0  0  0  0  0  0
   -1.8591    0.8268    2.4072 C   0  0  0  0  0  0  0  0  0  0  0  0
   -0.4629    0.4435    2.5716 C   0  0  0  0  0  0  0  0  0  0  0  0
    0.1615    0.2734    3.7415 C   0  0  0  0  0  0  0  0  0  0  0  0
    1.5616   -0.1365    3.8453 C   0  0  0  0  0  0  0  0  0  0  0  0
    2.1262   -1.1840    3.1085 C   0  0  0  0  0  0  0  0  0  0  0  0
    1.5094   -2.1320    2.3036 N   0  0  0  0  0  0  0  0  0  0  0  0
    0.2108   -2.6822    2.6448 C   0  0  0  0  0  0  0  0  0  0  0  0
    0.1576   -3.1341    4.1030 C   0  0  0  0  0  0  0  0  0  0  0  0
    2.5113   -2.8910    1.7112 C   0  0  0  0  0  0  0  0  0  0  0  0
    3.7713   -2.4784    2.2021 C   0  0  0  0  0  0  0  0  0  0  0  0
    3.5242   -1.3861    3.1020 C   0  0  0  0  0  0  0  0  0  0  0  0
    4.3603   -0.6127    3.8950 C   0  0  0  0  0  0  0  0  0  0  0  0
    3.7929    0.3635    4.6905 C   0  0  0  0  0  0  0  0  0  0  0  0
    2.4250    0.6004    4.6535 C   0  0  0  0  0  0  0  0  0  0  0  0
    4.9389   -3.1193    1.8128 C   0  0  0  0  0  0  0  0  0  0  0  0
    4.8425   -4.1776    0.9306 C   0  0  0  0  0  0  0  0  0  0  0  0
    3.6138   -4.5463    0.4021 C   0  0  0  0  0  0  0  0  0  0  0  0
    2.4256   -3.8944    0.7332 C   0  0  0  0  0  0  0  0  0  0  0  0
    1.2111   -4.2370    0.0069 C   0  0  0  0  0  0  0  0  0  0  0  0
    0.2924   -3.3245   -0.3414 C   0  0  0  0  0  0  0  0  0  0  0  0
   -1.0161   -3.5567   -0.9196 C   0  0  0  0  0  0  0  0  0  0  0  0
   -1.7904   -2.5181   -1.4657 C   0  0  0  0  0  0  0  0  0  0  0  0
   -1.4377   -1.2264   -1.8081 N   0  0  0  0  0  0  0  0  0  0  0  0
   -0.0985   -0.8138   -2.1680 C   0  0  0  0  0  0  0  0  0  0  0  0
    0.5533    0.1504   -1.1784 C   0  0  0  0  0  0  0  0  0  0  0  0
   -2.5915   -0.5422   -2.1606 C   0  0  0  0  0  0  0  0  0  0  0  0
   -3.6966   -1.4211   -2.0707 C   0  0  0  0  0  0  0  0  0  0  0  0
   -3.1768   -2.6962   -1.6720 C   0  0  0  0  0  0  0  0  0  0  0  0
   -3.7808   -3.9310   -1.4821 C   0  0  0  0  0  0  0  0  0  0  0  0
   -2.9933   -4.9858   -1.0652 C   0  0  0  0  0  0  0  0  0  0  0  0
   -1.6536   -4.7892   -0.7641 C   0  0  0  0  0  0  0  0  0  0  0  0
   -4.9922   -0.9868   -2.3134 C   0  0  0  0  0  0  0  0  0  0  0  0
   -5.1902    0.3428   -2.6194 C   0  0  0  0  0  0  0  0  0  0  0  0
   -4.1094    1.2108   -2.7070 C   0  0  0  0  0  0  0  0  0  0  0  0
   -2.7965    0.7971   -2.5087 C   0  0  0  0  0  0  0  0  0  0  0  0
   -1.7309    1.8031   -2.6683 C   0  0  0  0  0  0  0  0  0  0  0  0
   -0.9924    1.9503   -3.7755 C   0  0  0  0  0  0  0  0  0  0  0  0
   -1.1211    1.1882   -4.9828 C   0  0  0  0  0  0  0  0  0  0  0  0
   -2.5593    0.3223   -5.3874 S   0  0  0  0  0  0  0  0  0  0  0  0
   -1.9313   -0.2079   -6.9193 C   0  0  0  0  0  0  0  0  0  0  0  0
   -0.6448    0.2898   -7.1194 C   0  0  0  0  0  0  0  0  0  0  0  0
   -0.1907    1.0847   -6.0164 C   0  0  0  0  0  0  0  0  0  0  0  0
    1.0966    1.6651   -6.0640 C   0  0  0  0  0  0  0  0  0  0  0  0
    1.8870    1.5179   -7.1617 C   0  0  0  0  0  0  0  0  0  0  0  0
    3.2482    2.1295   -7.2509 C   0  0  0  0  0  0  0  0  0  0  0  0
    1.4075    0.7651   -8.2828 C   0  0  0  0  0  0  0  0  0  0  0  0
    2.2751    0.7326   -9.3316 O   0  0  0  0  0  0  0  0  0  0  0  0
    1.8973    0.0446  -10.4972 C   0  0  0  0  0  0  0  0  0  0  0  0
    0.1807    0.1603   -8.2600 C   0  0  0  0  0  0  0  0  0  0  0  0
   -2.8428   -0.9981   -7.7012 C   0  0  0  0  0  0  0  0  0  0  0  0
   -2.6348   -1.9924   -8.5757 C   0  0  0  0  0  0  0  0  0  0  0  0
   -1.3784   -2.5673   -9.0879 C   0  0  0  0  0  0  0  0  0  0  0  0
   -0.4811   -3.3954   -8.3999 C   0  0  0  0  0  0  0  0  0  0  0  0
   -0.5185   -3.9377   -7.1320 N   0  0  0  0  0  0  0  0  0  0  0  0
   -1.5376   -3.6747   -6.1458 C   0  0  0  0  0  0  0  0  0  0  0  0
   -1.0204   -2.8087   -4.9996 C   0  0  0  0  0  0  0  0  0  0  0  0
    0.5923   -4.7399   -6.9522 C   0  0  0  0  0  0  0  0  0  0  0  0
    1.3738   -4.7039   -8.1319 C   0  0  0  0  0  0  0  0  0  0  0  0
    0.6743   -3.8762   -9.0660 C   0  0  0  0  0  0  0  0  0  0  0  0
    0.9337   -3.5770  -10.3956 C   0  0  0  0  0  0  0  0  0  0  0  0
    0.0214   -2.8024  -11.0812 C   0  0  0  0  0  0  0  0  0  0  0  0
   -1.1083   -2.3204  -10.4325 C   0  0  0  0  0  0  0  0  0  0  0  0
    2.5712   -5.3978   -8.2408 C   0  0  0  0  0  0  0  0  0  0  0  0
    3.0004   -6.1304   -7.1559 C   0  0  0  0  0  0  0  0  0  0  0  0
    2.2326   -6.1815   -5.9997 C   0  0  0  0  0  0  0  0  0  0  0  0
    1.0175   -5.5158   -5.8616 C   0  0  0  0  0  0  0  0  0  0  0  0
    0.2723   -5.7145   -4.6142 C   0  0  0  0  0  0  0  0  0  0  0  0
    0.8269   -5.7121   -3.4104 C   0  0  0  0  0  0  0  0  0  0  0  0
    2.5293   -0.5591    7.6599 H   0  0  0  0  0  0  0  0  0  0  0  0
   -0.6025    1.4405    6.8185 H   0  0  0  0  0  0  0  0  0  0  0  0
    0.6435    0.1827    6.8653 H   0  0  0  0  0  0  0  0  0  0  0  0
   -0.0698   -0.4967    9.1343 H   0  0  0  0  0  0  0  0  0  0  0  0
   -1.4418   -0.5681    8.0200 H   0  0  0  0  0  0  0  0  0  0  0  0
   -1.2910    0.7730    9.1637 H   0  0  0  0  0  0  0  0  0  0  0  0
    4.6368    3.1914   10.1746 H   0  0  0  0  0  0  0  0  0  0  0  0
    5.8834    1.1051    9.7136 H   0  0  0  0  0  0  0  0  0  0  0  0
    4.8325   -0.7269    8.4721 H   0  0  0  0  0  0  0  0  0  0  0  0
    2.8082    5.1514   10.3187 H   0  0  0  0  0  0  0  0  0  0  0  0
    0.8074    6.6051   10.1044 H   0  0  0  0  0  0  0  0  0  0  0  0
   -1.1681    5.8120    8.9035 H   0  0  0  0  0  0  0  0  0  0  0  0
   -2.0357    2.5581    7.8676 H   0  0  0  0  0  0  0  0  0  0  0  0
   -1.7384    5.3025    6.5686 H   0  0  0  0  0  0  0  0  0  0  0  0
   -0.5762    3.5094    5.2267 H   0  0  0  0  0  0  0  0  0  0  0  0
   -0.1121    2.5798    3.7876 H   0  0  0  0  0  0  0  0  0  0  0  0
   -1.7563    5.1562    3.7575 H   0  0  0  0  0  0  0  0  0  0  0  0
   -0.0497    5.0110    3.3168 H   0  0  0  0  0  0  0  0  0  0  0  0
   -1.2899    4.2179    2.3366 H   0  0  0  0  0  0  0  0  0  0  0  0
   -6.5611    2.7340    4.1069 H   0  0  0  0  0  0  0  0  0  0  0  0
   -6.7119    4.2906    6.0298 H   0  0  0  0  0  0  0  0  0  0  0  0
   -4.6903    4.9987    7.2153 H   0  0  0  0  0  0  0  0  0  0  0  0
   -5.7497    1.1705    2.0893 H   0  0  0  0  0  0  0  0  0  0  0  0
   -4.4570   -0.1657    0.4405 H   0  0  0  0  0  0  0  0  0  0  0  0
   -2.0512   -0.4370    0.6996 H   0  0  0  0  0  0  0  0  0  0  0  0
    0.0687    0.2096    1.6588 H   0  0  0  0  0  0  0  0  0  0  0  0
   -0.3531    0.4993    4.6658 H   0  0  0  0  0  0  0  0  0  0  0  0
   -0.5719   -1.9409    2.4612 H   0  0  0  0  0  0  0  0  0  0  0  0
    0.0287   -3.5425    2.0034 H   0  0  0  0  0  0  0  0  0  0  0  0
    0.2583   -2.2876    4.7774 H   0  0  0  0  0  0  0  0  0  0  0  0
   -0.7944   -3.6209    4.2981 H   0  0  0  0  0  0  0  0  0  0  0  0
    0.9610   -3.8391    4.3085 H   0  0  0  0  0  0  0  0  0  0  0  0
    5.4268   -0.7773    3.8911 H   0  0  0  0  0  0  0  0  0  0  0  0
    4.4128    0.9675    5.3360 H   0  0  0  0  0  0  0  0  0  0  0  0
    2.0197    1.4129    5.2402 H   0  0  0  0  0  0  0  0  0  0  0  0
    5.8947   -2.7975    2.1972 H   0  0  0  0  0  0  0  0  0  0  0  0
    5.7312   -4.7101    0.6261 H   0  0  0  0  0  0  0  0  0  0  0  0
    3.5723   -5.3440   -0.3262 H   0  0  0  0  0  0  0  0  0  0  0  0
    1.1247   -5.2678   -0.3086 H   0  0  0  0  0  0  0  0  0  0  0  0
    0.4886   -2.3001   -0.0636 H   0  0  0  0  0  0  0  0  0  0  0  0
    0.5142   -1.7133   -2.2686 H   0  0  0  0  0  0  0  0  0  0  0  0
   -0.1455   -0.3346   -3.1494 H   0  0  0  0  0  0  0  0  0  0  0  0
    1.4315    0.5972   -1.6372 H   0  0  0  0  0  0  0  0  0  0  0  0
   -0.1378    0.9429   -0.9064 H   0  0  0  0  0  0  0  0  0  0  0  0
    0.8744   -0.3590   -0.2728 H   0  0  0  0  0  0  0  0  0  0  0  0
   -4.8389   -4.0565   -1.6525 H   0  0  0  0  0  0  0  0  0  0  0  0
   -3.4295   -5.9633   -0.9218 H   0  0  0  0  0  0  0  0  0  0  0  0
   -1.0940   -5.6088   -0.3380 H   0  0  0  0  0  0  0  0  0  0  0  0
   -5.8206   -1.6753   -2.2424 H   0  0  0  0  0  0  0  0  0  0  0  0
   -6.1872    0.7191   -2.7923 H   0  0  0  0  0  0  0  0  0  0  0  0
   -4.2829    2.2480   -2.9547 H   0  0  0  0  0  0  0  0  0  0  0  0
   -1.5982    2.4918   -1.8434 H   0  0  0  0  0  0  0  0  0  0  0  0
   -0.2188    2.7070   -3.7940 H   0  0  0  0  0  0  0  0  0  0  0  0
    1.4504    2.2391   -5.2206 H   0  0  0  0  0  0  0  0  0  0  0  0
    3.2943    2.8152   -8.0954 H   0  0  0  0  0  0  0  0  0  0  0  0
    3.9941    1.3552   -7.4228 H   0  0  0  0  0  0  0  0  0  0  0  0
    3.4926    2.6672   -6.3385 H   0  0  0  0  0  0  0  0  0  0  0  0
    1.7493   -1.0219  -10.3041 H   0  0  0  0  0  0  0  0  0  0  0  0
    0.9823    0.4615  -10.9304 H   0  0  0  0  0  0  0  0  0  0  0  0
    2.7210    0.1773  -11.1973 H   0  0  0  0  0  0  0  0  0  0  0  0
   -0.1828   -0.4086   -9.0972 H   0  0  0  0  0  0  0  0  0  0  0  0
   -3.8797   -0.7764   -7.4680 H   0  0  0  0  0  0  0  0  0  0  0  0
   -3.5162   -2.4113   -9.0512 H   0  0  0  0  0  0  0  0  0  0  0  0
   -1.9277   -4.6192   -5.7586 H   0  0  0  0  0  0  0  0  0  0  0  0
   -2.3579   -3.1649   -6.6502 H   0  0  0  0  0  0  0  0  0  0  0  0
   -1.8527   -2.5049   -4.3708 H   0  0  0  0  0  0  0  0  0  0  0  0
   -0.3040   -3.3558   -4.3923 H   0  0  0  0  0  0  0  0  0  0  0  0
   -0.5316   -1.9227   -5.3973 H   0  0  0  0  0  0  0  0  0  0  0  0
    1.8181   -3.9617  -10.8802 H   0  0  0  0  0  0  0  0  0  0  0  0
    0.1773   -2.5658  -12.1232 H   0  0  0  0  0  0  0  0  0  0  0  0
   -1.8095   -1.7090  -10.9841 H   0  0  0  0  0  0  0  0  0  0  0  0
    3.1442   -5.3587   -9.1546 H   0  0  0  0  0  0  0  0  0  0  0  0
    3.9282   -6.6809   -7.2017 H   0  0  0  0  0  0  0  0  0  0  0  0
    2.5709   -6.7914   -5.1751 H   0  0  0  0  0  0  0  0  0  0  0  0
   -0.7853   -5.9209   -4.7018 H   0  0  0  0  0  0  0  0  0  0  0  0
    0.2410   -5.8985   -2.5277 H   0  0  0  0  0  0  0  0  0  0  0  0
    1.8724   -5.4964   -3.2630 H   0  0  0  0  0  0  0  0  0  0  0  0
  1  2  2  0  0  0  0
  2  3  1  0  0  0  0
  3  4  1  0  0  0  0
  4  5  1  0  0  0  0
  3  6  1  0  0  0  0
  6  7  2  0  0  0  0
  7  8  1  0  0  0  0
  8  9  2  0  0  0  0
  9 10  1  0  0  0  0
 10 11  2  0  0  0  0
  7 12  1  0  0  0  0
 12 13  2  0  0  0  0
 13 14  1  0  0  0  0
 14 15  2  0  0  0  0
 15 16  1  0  0  0  0
 16 17  2  0  0  0  0
 17 18  1  0  0  0  0
 18 19  2  0  0  0  0
 19 20  1  0  0  0  0
 20 21  1  0  0  0  0
 21 22  1  0  0  0  0
 20 23  1  0  0  0  0
 23 24  2  0  0  0  0
 24 25  1  0  0  0  0
 25 26  2  0  0  0  0
 26 27  1  0  0  0  0
 27 28  2  0  0  0  0
 24 29  1  0  0  0  0
 29 30  2  0  0  0  0
 30 31  1  0  0  0  0
 31 32  2  0  0  0  0
 32 33  1  0  0  0  0
 33 34  2  0  0  0  0
 34 35  1  0  0  0  0
 35 36  2  0  0  0  0
 36 37  1  0  0  0  0
 37 38  1  0  0  0  0
 38 39  1  0  0  0  0
 37 40  1  0  0  0  0
 40 41  2  0  0  0  0
 41 42  1  0  0  0  0
 42 43  2  0  0  0  0
 43 44  1  0  0  0  0
 44 45  2  0  0  0  0
 41 46  1  0  0  0  0
 46 47  2  0  0  0  0
 47 48  1  0  0  0  0
 48 49  2  0  0  0  0
 49 50  1  0  0  0  0
 50 51  2  0  0  0  0
 51 52  1  0  0  0  0
 52 53  2  0  0  0  0
 53 54  1  0  0  0  0
 54 55  1  0  0  0  0
 55 56  1  0  0  0  0
 54 57  1  0  0  0  0
 57 58  2  0  0  0  0
 58 59  1  0  0  0  0
 59 60  2  0  0  0  0
 60 61  1  0  0  0  0
 61 62  2  0  0  0  0
 58 63  1  0  0  0  0
 63 64  2  0  0  0  0
 64 65  1  0  0  0  0
 65 66  2  0  0  0  0
 66 67  1  0  0  0  0
 67 68  2  0  0  0  0
 68 69  1  0  0  0  0
 69 70  1  0  0  0  0
 70 71  1  0  0  0  0
 71 72  2  0  0  0  0
 72 73  1  0  0  0  0
 73 74  1  0  0  0  0
 74 75  2  0  0  0  0
 75 76  1  0  0  0  0
 75 77  1  0  0  0  0
 77 78  1  0  0  0  0
 78 79  1  0  0  0  0
 77 80  2  0  0  0  0
 71 81  1  0  0  0  0
 81 82  2  0  0  0  0
 82 83  1  0  0  0  0
 83 84  2  0  0  0  0
 84 85  1  0  0  0  0
 85 86  1  0  0  0  0
 86 87  1  0  0  0  0
 85 88  1  0  0  0  0
 88 89  2  0  0  0  0
 89 90  1  0  0  0  0
 90 91  2  0  0  0  0
 91 92  1  0  0  0  0
 92 93  2  0  0  0  0
 89 94  1  0  0  0  0
 94 95  2  0  0  0  0
 95 96  1  0  0  0  0
 96 97  2  0  0  0  0
 97 98  1  0  0  0  0
 98 99  2  0  0  0  0
 11  1  1  0  0  0  0
 28 18  1  0  0  0  0
 45 35  1  0  0  0  0
 62 52  1  0  0  0  0
 73 69  2  0  0  0  0
 93 83  1  0  0  0  0
  8  2  1  0  0  0  0
 25 19  1  0  0  0  0
 42 36  1  0  0  0  0
 59 53  1  0  0  0  0
 80 72  1  0  0  0  0
 90 84  1  0  0  0  0
 15  6  1  0  0  0  0
 32 23  1  0  0  0  0
 49 40  1  0  0  0  0
 66 57  1  0  0  0  0
 97 88  1  0  0  0  0
  1100  1  0  0  0  0
  4101  1  0  0  0  0
  4102  1  0  0  0  0
  5103  1  0  0  0  0
  5104  1  0  0  0  0
  5105  1  0  0  0  0
  9106  1  0  0  0  0
 10107  1  0  0  0  0
 11108  1  0  0  0  0
 12109  1  0  0  0  0
 13110  1  0  0  0  0
 14111  1  0  0  0  0
 16112  1  0  0  0  0
 17113  1  0  0  0  0
 21114  1  0  0  0  0
 21115  1  0  0  0  0
 22116  1  0  0  0  0
 22117  1  0  0  0  0
 22118  1  0  0  0  0
 26119  1  0  0  0  0
 27120  1  0  0  0  0
 28121  1  0  0  0  0
 29122  1  0  0  0  0
 30123  1  0  0  0  0
 31124  1  0  0  0  0
 33125  1  0  0  0  0
 34126  1  0  0  0  0
 38127  1  0  0  0  0
 38128  1  0  0  0  0
 39129  1  0  0  0  0
 39130  1  0  0  0  0
 39131  1  0  0  0  0
 43132  1  0  0  0  0
 44133  1  0  0  0  0
 45134  1  0  0  0  0
 46135  1  0  0  0  0
 47136  1  0  0  0  0
 48137  1  0  0  0  0
 50138  1  0  0  0  0
 51139  1  0  0  0  0
 55140  1  0  0  0  0
 55141  1  0  0  0  0
 56142  1  0  0  0  0
 56143  1  0  0  0  0
 56144  1  0  0  0  0
 60145  1  0  0  0  0
 61146  1  0  0  0  0
 62147  1  0  0  0  0
 63148  1  0  0  0  0
 64149  1  0  0  0  0
 65150  1  0  0  0  0
 67151  1  0  0  0  0
 68152  1  0  0  0  0
 74153  1  0  0  0  0
 76154  1  0  0  0  0
 76155  1  0  0  0  0
 76156  1  0  0  0  0
 79157  1  0  0  0  0
 79158  1  0  0  0  0
 79159  1  0  0  0  0
 80160  1  0  0  0  0
 81161  1  0  0  0  0
 82162  1  0  0  0  0
 86163  1  0  0  0  0
 86164  1  0  0  0  0
 87165  1  0  0  0  0
 87166  1  0  0  0  0
 87167  1  0  0  0  0
 91168  1  0  0  0  0
 92169  1  0  0  0  0
 93170  1  0  0  0  0
 94171  1  0  0  0  0
 95172  1  0  0  0  0
 96173  1  0  0  0  0
 98174  1  0  0  0  0
 99175  1  0  0  0  0
 99176  1  0  0  0  0
M  END
