
  xtb     03032200033D
 energy: -174.862105388823 gnorm: 0.000659485685 xtb: 6.4.1 (unknown)
 91 97  0     0  0            999 V2000
   -7.2815    4.2435   -0.3090 C   0  0  0  0  0  0  0  0  0  0  0  0
   -8.5032    3.4450    0.5899 S   0  0  0  0  0  0  0  0  0  0  0  0
   -7.7068    1.9019    0.4233 C   0  0  0  0  0  0  0  0  0  0  0  0
   -6.5667    2.0313   -0.3479 C   0  0  0  0  0  0  0  0  0  0  0  0
   -6.3149    3.3827   -0.7459 C   0  0  0  0  0  0  0  0  0  0  0  0
   -5.1553    3.7413   -1.4531 C   0  0  0  0  0  0  0  0  0  0  0  0
   -4.1788    4.0016   -1.9950 N   0  0  0  0  0  0  0  0  0  0  0  0
   -5.7723    0.9720   -0.8064 C   0  0  0  0  0  0  0  0  0  0  0  0
   -5.1240    0.1351   -1.2492 N   0  0  0  0  0  0  0  0  0  0  0  0
   -8.2440    0.7304    1.0483 C   0  0  0  0  0  0  0  0  0  0  0  0
   -7.5377   -0.3199    1.5282 C   0  0  0  0  0  0  0  0  0  0  0  0
   -6.1227   -0.4260    1.6769 C   0  0  0  0  0  0  0  0  0  0  0  0
   -5.3715   -1.9686    1.4527 S   0  0  0  0  0  0  0  0  0  0  0  0
   -3.7736   -1.3137    1.5529 C   0  0  0  0  0  0  0  0  0  0  0  0
   -3.8245    0.0477    1.8763 C   0  0  0  0  0  0  0  0  0  0  0  0
   -5.1573    0.5478    1.9566 C   0  0  0  0  0  0  0  0  0  0  0  0
   -5.3593    1.8909    2.3381 C   0  0  0  0  0  0  0  0  0  0  0  0
   -4.3028    2.7302    2.5400 C   0  0  0  0  0  0  0  0  0  0  0  0
   -4.4915    4.1681    2.8978 C   0  0  0  0  0  0  0  0  0  0  0  0
   -2.9681    2.2273    2.4310 C   0  0  0  0  0  0  0  0  0  0  0  0
   -1.9981    3.1479    2.6552 O   0  0  0  0  0  0  0  0  0  0  0  0
   -0.6519    2.7513    2.5590 C   0  0  0  0  0  0  0  0  0  0  0  0
   -2.7401    0.9044    2.1510 C   0  0  0  0  0  0  0  0  0  0  0  0
   -2.6546   -2.1764    1.3618 C   0  0  0  0  0  0  0  0  0  0  0  0
   -1.4584   -1.8772    0.8033 C   0  0  0  0  0  0  0  0  0  0  0  0
   -1.1022   -0.7118    0.0587 C   0  0  0  0  0  0  0  0  0  0  0  0
   -2.2365    0.2910   -0.7933 S   0  0  0  0  0  0  0  0  0  0  0  0
   -0.9763    1.2746   -1.4647 C   0  0  0  0  0  0  0  0  0  0  0  0
    0.2672    0.8656   -1.0131 C   0  0  0  0  0  0  0  0  0  0  0  0
    0.1967   -0.2797   -0.1709 C   0  0  0  0  0  0  0  0  0  0  0  0
    1.3449   -0.8733    0.3637 C   0  0  0  0  0  0  0  0  0  0  0  0
    2.3065   -1.3398    0.7835 N   0  0  0  0  0  0  0  0  0  0  0  0
    1.4895    1.5049   -1.2628 C   0  0  0  0  0  0  0  0  0  0  0  0
    2.5109    2.0069   -1.4161 N   0  0  0  0  0  0  0  0  0  0  0  0
   -1.3082    2.3650   -2.3388 C   0  0  0  0  0  0  0  0  0  0  0  0
   -0.5605    2.8194   -3.3612 C   0  0  0  0  0  0  0  0  0  0  0  0
    0.6361    2.2073   -3.8757 C   0  0  0  0  0  0  0  0  0  0  0  0
    1.9754    3.1857   -4.3800 S   0  0  0  0  0  0  0  0  0  0  0  0
    2.9508    1.7938   -4.7378 C   0  0  0  0  0  0  0  0  0  0  0  0
    2.2269    0.6299   -4.5581 C   0  0  0  0  0  0  0  0  0  0  0  0
    0.9152    0.8647   -4.0546 C   0  0  0  0  0  0  0  0  0  0  0  0
    0.0246   -0.1854   -3.7776 C   0  0  0  0  0  0  0  0  0  0  0  0
   -0.6757   -1.0609   -3.5346 N   0  0  0  0  0  0  0  0  0  0  0  0
    2.6812   -0.6547   -4.9021 C   0  0  0  0  0  0  0  0  0  0  0  0
    3.0292   -1.7069   -5.1972 N   0  0  0  0  0  0  0  0  0  0  0  0
    4.2921    1.9638   -5.2142 C   0  0  0  0  0  0  0  0  0  0  0  0
    5.3623    1.1837   -4.9610 C   0  0  0  0  0  0  0  0  0  0  0  0
    5.5067    0.0998   -4.0387 C   0  0  0  0  0  0  0  0  0  0  0  0
    4.5458   -0.1734   -2.6184 S   0  0  0  0  0  0  0  0  0  0  0  0
    5.4855   -1.5631   -2.1549 C   0  0  0  0  0  0  0  0  0  0  0  0
    6.5157   -1.7858   -3.0617 C   0  0  0  0  0  0  0  0  0  0  0  0
    6.5318   -0.8343   -4.1137 C   0  0  0  0  0  0  0  0  0  0  0  0
    7.4850   -0.8376   -5.1480 C   0  0  0  0  0  0  0  0  0  0  0  0
    8.2637   -0.8116   -5.9888 N   0  0  0  0  0  0  0  0  0  0  0  0
    7.4689   -2.8171   -3.0052 C   0  0  0  0  0  0  0  0  0  0  0  0
    8.2733   -3.6345   -3.0032 N   0  0  0  0  0  0  0  0  0  0  0  0
    5.1080   -2.2860   -0.9911 C   0  0  0  0  0  0  0  0  0  0  0  0
    5.7521   -3.3701   -0.4975 C   0  0  0  0  0  0  0  0  0  0  0  0
    5.3121   -4.0931    0.6435 C   0  0  0  0  0  0  0  0  0  0  0  0
    3.8456   -3.7117    1.4939 S   0  0  0  0  0  0  0  0  0  0  0  0
    4.0837   -5.0093    2.6150 C   0  0  0  0  0  0  0  0  0  0  0  0
    5.2515   -5.7037    2.3402 C   0  0  0  0  0  0  0  0  0  0  0  0
    5.9516   -5.1847    1.2188 C   0  0  0  0  0  0  0  0  0  0  0  0
    7.1672   -5.7187    0.7575 C   0  0  0  0  0  0  0  0  0  0  0  0
    8.1613   -6.1630    0.3994 N   0  0  0  0  0  0  0  0  0  0  0  0
    5.6888   -6.8049    3.0968 C   0  0  0  0  0  0  0  0  0  0  0  0
    6.0300   -7.7010    3.7253 N   0  0  0  0  0  0  0  0  0  0  0  0
    3.1601   -5.2925    3.6773 C   0  0  0  0  0  0  0  0  0  0  0  0
    2.0614   -4.5803    3.9188 C   0  0  0  0  0  0  0  0  0  0  0  0
   -7.3331    5.3023   -0.4701 H   0  0  0  0  0  0  0  0  0  0  0  0
   -9.3223    0.7021    1.1277 H   0  0  0  0  0  0  0  0  0  0  0  0
   -8.0973   -1.1985    1.8244 H   0  0  0  0  0  0  0  0  0  0  0  0
   -6.3638    2.2494    2.5020 H   0  0  0  0  0  0  0  0  0  0  0  0
   -4.0713    4.8010    2.1167 H   0  0  0  0  0  0  0  0  0  0  0  0
   -3.9596    4.3987    3.8189 H   0  0  0  0  0  0  0  0  0  0  0  0
   -5.5452    4.4039    3.0223 H   0  0  0  0  0  0  0  0  0  0  0  0
   -0.3975    1.9975    3.3104 H   0  0  0  0  0  0  0  0  0  0  0  0
   -0.0656    3.6506    2.7392 H   0  0  0  0  0  0  0  0  0  0  0  0
   -0.4177    2.3633    1.5623 H   0  0  0  0  0  0  0  0  0  0  0  0
   -1.7443    0.4942    2.1588 H   0  0  0  0  0  0  0  0  0  0  0  0
   -2.7969   -3.1933    1.7065 H   0  0  0  0  0  0  0  0  0  0  0  0
   -0.6706   -2.6182    0.8674 H   0  0  0  0  0  0  0  0  0  0  0  0
   -2.2541    2.8524   -2.1388 H   0  0  0  0  0  0  0  0  0  0  0  0
   -0.8686    3.7297   -3.8575 H   0  0  0  0  0  0  0  0  0  0  0  0
    4.4415    2.8295   -5.8464 H   0  0  0  0  0  0  0  0  0  0  0  0
    6.2726    1.4039   -5.5069 H   0  0  0  0  0  0  0  0  0  0  0  0
    4.2230   -1.9209   -0.4822 H   0  0  0  0  0  0  0  0  0  0  0  0
    6.6503   -3.7456   -0.9695 H   0  0  0  0  0  0  0  0  0  0  0  0
    3.4178   -6.1450    4.2930 H   0  0  0  0  0  0  0  0  0  0  0  0
    1.3981   -4.8259    4.7286 H   0  0  0  0  0  0  0  0  0  0  0  0
    1.8031   -3.7239    3.3164 H   0  0  0  0  0  0  0  0  0  0  0  0
  1  2  1  0  0  0  0
  2  3  1  0  0  0  0
  3  4  2  0  0  0  0
  4  5  1  0  0  0  0
  5  6  1  0  0  0  0
  6  7  3  0  0  0  0
  4  8  1  0  0  0  0
  8  9  3  0  0  0  0
  3 10  1  0  0  0  0
 10 11  2  0  0  0  0
 11 12  1  0  0  0  0
 12 13  1  0  0  0  0
 13 14  1  0  0  0  0
 14 15  2  0  0  0  0
 15 16  1  0  0  0  0
 16 17  1  0  0  0  0
 17 18  2  0  0  0  0
 18 19  1  0  0  0  0
 18 20  1  0  0  0  0
 20 21  1  0  0  0  0
 21 22  1  0  0  0  0
 20 23  2  0  0  0  0
 14 24  1  0  0  0  0
 24 25  2  0  0  0  0
 25 26  1  0  0  0  0
 26 27  1  0  0  0  0
 27 28  1  0  0  0  0
 28 29  2  0  0  0  0
 29 30  1  0  0  0  0
 30 31  1  0  0  0  0
 31 32  3  0  0  0  0
 29 33  1  0  0  0  0
 33 34  3  0  0  0  0
 28 35  1  0  0  0  0
 35 36  2  0  0  0  0
 36 37  1  0  0  0  0
 37 38  1  0  0  0  0
 38 39  1  0  0  0  0
 39 40  2  0  0  0  0
 40 41  1  0  0  0  0
 41 42  1  0  0  0  0
 42 43  3  0  0  0  0
 40 44  1  0  0  0  0
 44 45  3  0  0  0  0
 39 46  1  0  0  0  0
 46 47  2  0  0  0  0
 47 48  1  0  0  0  0
 48 49  1  0  0  0  0
 49 50  1  0  0  0  0
 50 51  2  0  0  0  0
 51 52  1  0  0  0  0
 52 53  1  0  0  0  0
 53 54  3  0  0  0  0
 51 55  1  0  0  0  0
 55 56  3  0  0  0  0
 50 57  1  0  0  0  0
 57 58  2  0  0  0  0
 58 59  1  0  0  0  0
 59 60  1  0  0  0  0
 60 61  1  0  0  0  0
 61 62  2  0  0  0  0
 62 63  1  0  0  0  0
 63 64  1  0  0  0  0
 64 65  3  0  0  0  0
 62 66  1  0  0  0  0
 66 67  3  0  0  0  0
 61 68  1  0  0  0  0
 68 69  2  0  0  0  0
  5  1  2  0  0  0  0
 16 12  2  0  0  0  0
 30 26  2  0  0  0  0
 41 37  2  0  0  0  0
 52 48  2  0  0  0  0
 63 59  2  0  0  0  0
 23 15  1  0  0  0  0
  1 70  1  0  0  0  0
 10 71  1  0  0  0  0
 11 72  1  0  0  0  0
 17 73  1  0  0  0  0
 19 74  1  0  0  0  0
 19 75  1  0  0  0  0
 19 76  1  0  0  0  0
 22 77  1  0  0  0  0
 22 78  1  0  0  0  0
 22 79  1  0  0  0  0
 23 80  1  0  0  0  0
 24 81  1  0  0  0  0
 25 82  1  0  0  0  0
 35 83  1  0  0  0  0
 36 84  1  0  0  0  0
 46 85  1  0  0  0  0
 47 86  1  0  0  0  0
 57 87  1  0  0  0  0
 58 88  1  0  0  0  0
 68 89  1  0  0  0  0
 69 90  1  0  0  0  0
 69 91  1  0  0  0  0
M  END
