182

C          8.16590        1.27450        1.68260
S          9.50400        0.29090        2.08240
C          8.49750       -1.08700        2.39720
C          7.16660       -0.78390        2.12410
C          6.97750        0.58340        1.74300
C          5.66290        1.05440        1.50020
C          4.59900        0.21080        1.57740
C          3.19720        0.67330        1.34700
C          4.81160       -1.18210        1.85820
O          3.68570       -1.94820        1.81360
C          3.82280       -3.33750        1.97740
C          6.06030       -1.66300        2.13100
C          9.05060       -2.32070        2.87800
C          8.46710       -3.09760        3.81510
C          7.35710       -2.70850        4.63640
S          7.19250       -1.09210        5.22630
C          5.68360       -1.42630        6.02350
C          5.35710       -2.77880        5.88440
C          6.30670       -3.50080        5.09870
C          6.07720       -4.86670        4.82090
C          4.97430       -5.50270        5.30900
C          4.68750       -6.94010        5.01400
C          4.05910       -4.78770        6.14530
O          3.00800       -5.52940        6.59390
C          2.02480       -4.89700        7.37410
C          4.25840       -3.46560        6.44230
C          5.05720       -0.36760        6.73680
C          3.73380       -0.16190        6.96660
C          2.62480       -0.79250        6.34730
S          2.69770       -1.49700        4.76630
C          1.03610       -2.01590        4.81880
C          0.42060       -1.56900        6.00080
C          1.31950       -0.87400        6.85980
C          0.85250       -0.38990        8.09770
C         -0.45810       -0.52940        8.45410
C         -0.98660       -0.01870        9.75630
C         -1.36960       -1.15630        7.55160
O         -2.66240       -1.18910        7.98460
C         -3.63640       -1.75240        7.14340
C         -0.93870       -1.66940        6.35510
C          0.54100       -2.82630        3.77860
C         -0.46000       -3.74320        3.90990
C         -0.95730       -4.55370        2.87530
S         -0.53210       -4.31190        1.21050
C         -1.49060       -5.65650        0.66440
C         -2.11320       -6.28020        1.76040
C         -1.83430       -5.64620        3.00240
C         -2.41620       -6.15190        4.17970
C         -3.24590       -7.23590        4.14080
C         -3.87980       -7.79700        5.37360
C         -3.52780       -7.86270        2.88920
O         -4.37020       -8.93030        2.97240
C         -4.70690       -9.61460        1.79230
C         -2.97730       -7.39180        1.72480
C         -1.51190       -6.13520       -0.66600
C         -1.29010       -5.52660       -1.86170
C         -1.21390       -4.14950       -2.20980
C         -1.52790       -3.00390       -1.52940
C         -1.48330       -1.83180       -2.31740
C         -1.81070       -0.51810       -1.92980
C         -2.08470       -0.18660       -0.54210
S         -3.52920        0.65340       -0.06470
C         -3.05180        0.68430        1.59910
C         -3.88810        1.36890        2.62330
C         -3.77290        2.88910        2.49250
C         -1.83980        0.08170        1.75690
Cl        -1.03010       -0.06220        3.26520
C         -1.29030       -0.41900        0.54620
Cl         0.25440       -1.15620        0.45960
C         -1.83930        0.44770       -2.92630
C         -1.49680        0.16770       -4.27020
C         -1.14610       -1.13870       -4.65820
C         -0.85130       -1.43420       -6.05050
S          0.61710       -2.23530       -6.52200
C          0.22680       -2.13210       -8.20510
C          1.12070       -2.71450       -9.24340
C          0.83670       -4.20650       -9.43270
C         -0.98280       -1.52750       -8.37420
C         -1.59560       -1.12850       -7.15720
Cl        -3.15650       -0.41050       -7.11360
Cl        -1.70800       -1.24590       -9.90270
C         -1.13890       -2.10600       -3.66650
S         -0.82860       -3.79860       -3.89610
C         -1.55710        1.32160       -5.08170
C         -1.98180        2.43610       -4.41810
S         -2.25600        2.12800       -2.71730
C         -2.24600        3.69550       -5.03610
C         -2.42440        3.87410       -6.37650
C         -2.66430        5.21790       -6.74270
C         -2.84140        5.73140       -8.03730
C         -2.71510        4.85070       -9.18680
S         -3.97660        4.69370      -10.37190
C         -3.11480        3.47100      -11.24150
C         -3.70910        2.79090      -12.42510
C         -4.42980        1.50650      -12.00640
C         -1.91890        3.21330      -10.63970
Cl        -0.79050        2.05490      -11.21180
C         -1.68720        3.99550       -9.47820
Cl        -0.22030        3.90790       -8.58870
C         -3.12440        7.08630       -8.13990
C         -3.19800        7.94090       -7.01410
C         -2.99460        7.42940       -5.72170
C         -3.05670        8.28400       -4.54570
S         -2.05020        9.69410       -4.39590
C         -2.67230       10.06950       -2.82480
C         -2.23090       11.28650       -2.08940
C         -3.01360       12.51800       -2.55130
C         -3.61180        9.15340       -2.45840
C         -3.82760        8.13590       -3.42690
Cl        -5.00350        6.90630       -3.22120
Cl        -4.46400        9.20040       -0.97010
C         -2.72870        6.07010       -5.61370
S         -2.40840        5.19070       -4.14380
C         -3.50400        9.28030       -7.39580
C         -3.63490        9.42850       -8.72960
S         -3.40040        7.96260       -9.61850
H          8.32190        2.30470        1.43200
H          5.51970        2.09590        1.25280
H          3.15990        1.75090        1.21160
H          2.56990        0.39310        2.19150
H          2.78530        0.18920        0.46290
H          4.14750       -3.59360        2.99180
H          4.52830       -3.75780        1.25340
H          2.83580       -3.76120        1.79630
H          6.23140       -2.70490        2.34240
H          9.98910       -2.63670        2.44080
H          8.86920       -4.08520        4.00440
H          6.78530       -5.40490        4.20810
H          4.63610       -7.50880        5.94110
H          5.45620       -7.36580        4.37470
H          3.71970       -7.03320        4.52340
H          1.27830       -5.66210        7.58240
H          2.43450       -4.52600        8.31930
H          1.55410       -4.06780        6.83590
H          3.59840       -2.93380        7.10620
H          5.74410        0.36560        7.14340
H          3.47340        0.60990        7.68080
H          1.53880        0.10780        8.76620
H         -1.76550        0.72120        9.57870
H         -0.19320        0.43160       10.34660
H         -1.43740       -0.83270       10.32190
H         -3.44570       -2.81540        6.96070
H         -3.69470       -1.22740        6.18440
H         -4.58230       -1.64350        7.67180
H         -1.62770       -2.11090        5.65580
H          1.05260       -2.74990        2.82820
H         -0.87760       -3.92760        4.88890
H         -2.20380       -5.67850        5.12670
H         -3.58160       -7.23390        6.25410
H         -4.96450       -7.77120        5.28140
H         -3.59140       -8.83930        5.50050
H         -5.37640      -10.41740        2.09720
H         -3.82260      -10.04480        1.31060
H         -5.22500       -8.96170        1.08220
H         -3.19630       -7.85220        0.77560
H         -1.73460       -7.19540       -0.72810
H         -1.24110       -6.18350       -2.72180
H         -1.85040       -2.99480       -0.50630
H         -4.93220        1.07380        2.49960
H         -3.55010        1.05700        3.61310
H         -4.11010        3.20850        1.50940
H         -2.73950        3.20080        2.62260
H         -4.38250        3.37750        3.24800
H          0.95530       -2.18720      -10.18500
H          2.16110       -2.57800       -8.94380
H         -0.19400       -4.35730       -9.74370
H          1.00040       -4.74150       -8.50030
H          1.49430       -4.61850      -10.19350
H         -1.27340        1.33290       -6.11660
H         -2.42360        3.06250       -7.07860
H         -4.41410        3.46470      -12.91400
H         -2.91100        2.54560      -13.12900
H         -5.23160        1.73360      -11.30790
H         -3.73420        0.82360      -11.52560
H         -4.85380        1.01480      -12.87790
H         -1.16530       11.44840       -2.26080
H         -2.39460       11.12780       -1.02210
H         -4.07720       12.37490       -2.37760
H         -2.68600       13.39650       -2.00230
H         -2.85380       12.68990       -3.61310
H         -3.62140       10.08430       -6.69280
H         -3.86230       10.32460       -9.27310
