156

C          5.82810        2.51330       -0.37600
C          7.13920        2.47840       -0.81050
C          8.24050        2.01290        0.09380
C          7.40930        2.91540       -2.09900
C          6.39900        3.33270       -2.95450
C          6.78810        3.73250       -4.35420
C          6.87920        2.50930       -5.26900
C          5.07240        3.34520       -2.51930
C          3.96780        3.68720       -3.47900
C          4.79370        2.97750       -1.19250
C          3.47460        3.03590       -0.58650
C          2.54460        3.99330       -0.77010
C          1.26870        3.99470       -0.14320
S          0.78180        2.72280        0.93010
C         -0.80210        3.39120        1.15880
C         -0.94300        4.57290        0.42890
C          0.23190        4.91770       -0.30690
C          0.22710        6.08670       -1.09790
C         -0.87530        6.88540       -1.15630
C         -0.91110        8.13220       -1.98140
C         -2.04500        6.53780       -0.40760
O         -3.07860        7.42010       -0.54280
C         -4.26650        7.16980        0.16210
C         -2.07840        5.40970        0.36450
C         -1.76730        2.72660        1.96650
C         -1.49290        1.62290        2.68400
C         -2.43280        0.82370        3.45370
C         -3.40670        1.39200        4.28090
C         -3.49610        2.86920        4.53230
C         -4.30770        0.55250        4.91490
C         -4.26080       -0.82650        4.78310
C         -5.27920       -1.64830        5.52650
C         -4.82280       -1.92580        6.96050
C         -3.25940       -1.40750        4.00180
C         -3.14400       -2.90130        3.91720
C         -2.36460       -0.58130        3.32000
C         -1.33460       -1.11210        2.41330
C         -1.49770       -1.88130        1.33760
C         -2.74340       -2.46660        0.84050
C         -3.89750       -1.71280        0.61120
C         -3.92050       -0.21800        0.71860
C         -5.04810       -2.36370        0.19680
C         -5.10330       -3.73450       -0.01380
C         -6.40790       -4.33440       -0.46530
C         -6.42750       -4.53180       -1.98200
C         -3.93200       -4.47780        0.12210
C         -3.88340       -5.95590       -0.14450
C         -2.75260       -3.83800        0.52410
C         -1.50400       -4.60910        0.49010
C         -0.55610       -4.68360        1.41630
C          0.70480       -5.42150        1.20300
C          0.88030       -6.69710        1.73730
C         -0.21870       -7.33580        2.53250
C          2.07540       -7.35440        1.50610
C          3.10650       -6.78460        0.76890
C          4.35400       -7.59770        0.54490
C          4.33510       -8.26420       -0.83190
C          2.93470       -5.50550        0.24070
C          3.99040       -4.79760       -0.56090
C          1.73010       -4.83350        0.46220
C          1.52690       -3.45750       -0.04010
C          1.00700       -3.16380       -1.22740
C          0.64760       -1.81290       -1.67690
C          1.48710       -0.70760       -1.50670
C          2.89080       -0.82290       -0.98750
C          1.02080        0.54700       -1.86540
C         -0.25360        0.75370       -2.36770
C         -0.67340        2.15540       -2.71810
C         -0.24950        2.51660       -4.14290
C         -1.08150       -0.34870       -2.57970
C         -2.46330       -0.17490       -3.14560
C         -0.61980       -1.62310       -2.25130
C         -1.51440       -2.77820       -2.48460
C         -1.35090       -3.65930       -3.45590
H          5.59170        2.19930        0.63130
H          8.63870        2.85460        0.66170
H          7.87270        1.27350        0.80160
H          9.05590        1.57830       -0.48010
H          8.43090        2.91810       -2.45380
H          6.07710        4.44880       -4.76580
H          7.76600        4.21890       -4.32260
H          7.16840        2.80610       -6.27500
H          7.61910        1.80940       -4.88730
H          5.92380        1.99210       -5.32190
H          4.16710        3.26100       -4.45930
H          3.01760        3.29470       -3.12680
H          3.86990        4.76710       -3.59800
H          3.26490        2.26170        0.14300
H          2.74630        4.83210       -1.41960
H          1.11000        6.35160       -1.66010
H          0.03160        8.28020       -2.50160
H         -1.10930        8.99460       -1.34670
H         -1.71830        8.07520       -2.71020
H         -4.72230        6.22080       -0.14040
H         -4.93920        7.98810       -0.09040
H         -4.09800        7.16120        1.24440
H         -2.95310        5.13990        0.93310
H         -2.76900        3.12900        1.93690
H         -0.47840        1.24730        2.63230
H         -3.84820        3.05270        5.54590
H         -4.20690        3.33420        3.84810
H         -2.53000        3.35030        4.40170
H         -5.07410        0.98980        5.54090
H         -5.46400       -2.58980        5.00920
H         -6.22210       -1.09690        5.56090
H         -3.88090       -2.46960        6.96870
H         -4.67560       -0.99040        7.49590
H         -5.56770       -2.51570        7.49030
H         -3.89520       -3.30880        3.24010
H         -2.16690       -3.18470        3.54040
H         -3.28090       -3.35650        4.89530
H         -0.32330       -0.79500        2.64390
H         -0.61520       -2.17270        0.78380
H         -2.92170        0.19800        0.61080
H         -4.56240        0.19590       -0.05840
H         -4.31990        0.09600        1.68220
H         -5.94040       -1.77600        0.02740
H         -7.22200       -3.66200       -0.18590
H         -6.58970       -5.28990        0.03090
H         -7.38470       -4.93830       -2.30160
H         -5.64040       -5.21430       -2.29170
H         -6.26950       -3.57980       -2.48430
H         -3.45150       -6.15040       -1.12740
H         -3.25810       -6.45120        0.59650
H         -4.87090       -6.40550       -0.11600
H         -1.34870       -5.15410       -0.43500
H         -0.67350       -4.20920        2.38250
H          0.08670       -8.31160        2.90190
H         -0.49040       -6.70870        3.38120
H         -1.10970       -7.45850        1.91720
H          2.21390       -8.34630        1.91490
H          4.41500       -8.37310        1.31160
H          5.24560       -6.97520        0.64060
H          5.23580       -8.85590       -0.98190
H          3.47120       -8.91980       -0.91730
H          4.27370       -7.51810       -1.62010
H          3.63960       -4.63600       -1.58010
H          4.92050       -5.35340       -0.60340
H          4.19320       -3.82000       -0.12370
H          1.77230       -2.67190        0.66490
H          0.73110       -3.97460       -1.88820
H          2.91850       -0.64530        0.08800
H          3.30230       -1.80940       -1.18320
H          3.52510       -0.07460       -1.46030
H          1.67710        1.39670       -1.73940
H         -1.75220        2.27310       -2.61350
H         -0.19640        2.85450       -2.02940
H         -0.71520        1.85210       -4.86740
H          0.82930        2.42470       -4.24760
H         -0.53520        3.54030       -4.37560
H         -3.12730        0.23920       -2.38590
H         -2.87000       -1.12880       -3.46970
H         -2.45710        0.50160       -3.99690
H         -2.35850       -2.85830       -1.81060
H         -2.03350       -4.48070       -3.60200
H         -0.52870       -3.59360       -4.15080
