150

C         -1.36840        7.97370        4.90410
S         -2.78980        7.98690        5.84690
C         -3.67470        7.04540        4.68050
C         -2.87670        6.78780        3.56890
C         -1.54600        7.30290        3.71570
C         -0.59320        7.07720        2.69130
C         -0.93570        6.39230        1.56890
C          0.04480        6.10590        0.47780
C         -2.28630        5.93290        1.39900
O         -2.51260        5.30460        0.21580
C         -3.78830        4.76640       -0.03580
C         -3.23290        6.14270        2.36310
C         -5.03970        6.72860        4.97610
C         -5.74870        5.64120        4.61130
C         -5.27100        4.44610        3.97590
S         -3.68230        3.80960        4.24960
C         -3.97250        2.45260        3.20270
C         -5.26100        2.50250        2.69260
C         -5.98610        3.63000        3.12590
C         -7.38970        3.94580        2.68390
O         -8.24500        3.69490        3.79310
C         -9.49610        4.32470        3.72770
C         -7.75330        3.09730        1.46210
C         -7.38930        1.64660        1.74750
C         -5.86540        1.49860        1.75250
O         -5.27690        1.73840        0.47910
C         -5.61270        0.81730       -0.52630
C         -2.95160        1.48090        2.96660
S         -3.04120        0.46640        1.55660
C         -1.60910       -0.41150        2.00080
C         -1.10440        0.06920        3.19020
C         -1.83470        1.15640        3.71690
C         -1.38870        1.92620        4.93030
O         -1.12940        3.25030        4.48200
C         -0.83890        4.17500        5.49890
C         -0.13670        1.30970        5.57190
C         -0.11290       -0.20220        5.43170
C          0.02240       -0.57600        3.95110
O         -0.05220       -1.97260        3.74000
C          1.06300       -2.69880        4.18270
C         -1.03940       -1.38480        1.11730
S          0.68740       -1.47350        0.97030
C          0.59570       -2.71130       -0.25190
C         -0.72720       -3.03430       -0.50090
C         -1.64240       -2.27300        0.25220
C         -3.13040       -2.47950        0.17540
O         -3.52150       -3.13700        1.37520
C         -4.85670       -2.93640        1.74660
C         -3.48960       -3.29630       -1.06980
C         -2.59850       -4.52890       -1.13320
C         -1.16920       -4.09540       -1.46890
O         -1.04900       -3.53610       -2.77130
C         -1.19650       -4.44660       -3.83030
C          1.77110       -3.19940       -0.88540
S          1.69470       -3.81720       -2.50060
C          3.40500       -4.08870       -2.58410
C          4.01860       -3.71240       -1.38300
C          3.09350       -3.20840       -0.42060
C          3.57450       -2.83030        0.85010
C          4.90160       -2.91260        1.15220
C          5.43470       -2.52020        2.49340
C          5.82500       -3.38940        0.17100
O          7.12480       -3.41520        0.58530
C          8.10450       -3.87130       -0.31120
C          5.39030       -3.78700       -1.06470
C          4.02040       -4.60050       -3.75270
C          3.34750       -4.97680       -4.86390
C          3.90330       -5.47450       -6.08140
S          2.87660       -6.50030       -7.06390
C          4.10990       -6.71960       -8.23900
C          5.23640       -6.03770       -7.91020
C          5.12750       -5.32500       -6.68990
C          6.32080       -4.50950       -6.29320
O          6.40150       -3.40860       -7.18750
C          7.25470       -2.37820       -6.76780
C          7.53790       -5.45020       -6.37780
C          7.73580       -6.04890       -7.78010
C          6.49970       -5.93330       -8.70510
O          6.49660       -6.92800       -9.71020
C          7.41980       -6.71150      -10.74470
H         -0.47920        8.44600        5.27140
H          0.41100        7.45320        2.82260
H          1.02410        6.50970        0.72050
H          0.12540        5.03040        0.32910
H         -0.30070        6.53780       -0.46020
H         -4.55850        5.54510       -0.03940
H         -3.72700        4.31740       -1.02570
H         -4.05610        3.99090        0.68730
H         -4.25280        5.82670        2.22500
H         -5.54690        7.46950        5.58350
H         -6.80510        5.62420        4.84620
H         -7.45620        5.01700        2.42280
H         -9.98180        4.13620        4.68370
H        -10.12440        3.92330        2.92420
H         -9.39010        5.40770        3.58020
H         -7.18650        3.45480        0.60020
H         -8.81750        3.19520        1.24340
H         -7.82620        0.97780        1.00500
H         -7.77010        1.36670        2.73110
H         -5.60530        0.47450        2.07700
H         -6.61200        1.00340       -0.93510
H         -4.87450        0.94700       -1.31620
H         -5.56570       -0.21290       -0.15580
H         -2.21060        1.95480        5.66990
H          0.12220        3.96680        5.97930
H         -0.79510        5.14710        5.01240
H         -1.62730        4.18750        6.26090
H          0.73790        1.72650        5.06520
H         -0.08930        1.58780        6.62610
H          0.72710       -0.61010        5.99640
H         -1.03590       -0.63880        5.81900
H          0.99350       -0.20250        3.57350
H          1.99830       -2.23430        3.84610
H          0.97490       -3.69070        3.74220
H          1.08850       -2.79350        5.27420
H         -3.62840       -1.50040        0.12040
H         -5.56050       -3.33450        1.00510
H         -5.07140       -1.87050        1.89880
H         -4.99390       -3.46670        2.68720
H         -3.32730       -2.68150       -1.95670
H         -4.54220       -3.58160       -1.02990
H         -2.96010       -5.23630       -1.88030
H         -2.59570       -5.02270       -0.16020
H         -0.49550       -4.96880       -1.39700
H         -0.86670       -3.92350       -4.72640
H         -2.23750       -4.76030       -3.96280
H         -0.57200       -5.33550       -3.68100
H          2.87770       -2.48090        1.59420
H          4.63300       -2.17940        3.14280
H          5.93820       -3.36600        2.95890
H          6.17070       -1.72530        2.38460
H          7.93200       -4.91330       -0.60110
H          9.05100       -3.79890        0.22260
H          8.14850       -3.24790       -1.21080
H          6.07530       -4.16580       -1.80550
H          5.09490       -4.69970       -3.71330
H          2.26510       -4.94500       -4.83510
H          3.93830       -7.33640       -9.09660
H          6.23070       -4.12040       -5.27030
H          7.12280       -1.56500       -7.47930
H          8.30730       -2.68540       -6.76690
H          6.98840       -2.02590       -5.76280
H          7.36610       -6.24700       -5.65150
H          8.44020       -4.91650       -6.07390
H          8.57790       -5.55880       -8.27140
H          7.97200       -7.11120       -7.69090
H          6.50690       -4.93520       -9.17570
H          7.21460       -7.46750      -11.50080
H          7.29560       -5.71410      -11.18520
H          8.45560       -6.82000      -10.40270
