
  xtb     03022222473D
 energy: -218.896015149613 gnorm: 0.000555945246 xtb: 6.4.1 (unknown)
141152  0     0  0            999 V2000
    8.5769    4.1721   -0.9928 C   0  0  0  0  0  0  0  0  0  0  0  0
    7.2906    3.2772   -0.2925 S   0  0  0  0  0  0  0  0  0  0  0  0
    6.1111    4.3368   -1.0223 C   0  0  0  0  0  0  0  0  0  0  0  0
    6.7292    5.3267   -1.7581 C   0  0  0  0  0  0  0  0  0  0  0  0
    8.1406    5.2234   -1.7415 C   0  0  0  0  0  0  0  0  0  0  0  0
    9.0252    6.1871   -2.4703 C   0  0  0  0  0  0  0  0  0  0  0  0
    8.2438    6.8815   -3.5825 C   0  0  0  0  0  0  0  0  0  0  0  0
    6.9546    7.4831   -3.0074 C   0  0  0  0  0  0  0  0  0  0  0  0
    6.3033    8.3662   -4.0373 C   0  0  0  0  0  0  0  0  0  0  0  0
    5.1960    8.2370   -4.4751 O   0  0  0  0  0  0  0  0  0  0  0  0
    6.0066    6.3794   -2.5384 C   0  0  0  0  0  0  0  0  0  0  0  0
    4.7131    4.1299   -0.8522 C   0  0  0  0  0  0  0  0  0  0  0  0
    4.1630    3.0874   -0.1958 C   0  0  0  0  0  0  0  0  0  0  0  0
    2.7630    2.8706   -0.0700 C   0  0  0  0  0  0  0  0  0  0  0  0
    1.5950    3.9920   -0.7153 S   0  0  0  0  0  0  0  0  0  0  0  0
    0.2649    2.9846   -0.2076 C   0  0  0  0  0  0  0  0  0  0  0  0
    0.7245    1.8320    0.4002 C   0  0  0  0  0  0  0  0  0  0  0  0
    2.1310    1.7833    0.5006 C   0  0  0  0  0  0  0  0  0  0  0  0
    2.8642    0.6484    1.1459 C   0  0  0  0  0  0  0  0  0  0  0  0
    1.9027   -0.3680    1.7581 C   0  0  0  0  0  0  0  0  0  0  0  0
    0.7177   -0.6075    0.8131 C   0  0  0  0  0  0  0  0  0  0  0  0
   -0.0929   -1.7691    1.3064 C   0  0  0  0  0  0  0  0  0  0  0  0
   -0.2276   -2.8147    0.7357 O   0  0  0  0  0  0  0  0  0  0  0  0
   -0.1306    0.6686    0.7915 C   0  0  0  0  0  0  0  0  0  0  0  0
   -1.0649    3.4054   -0.5286 C   0  0  0  0  0  0  0  0  0  0  0  0
   -2.2019    3.1865    0.1626 C   0  0  0  0  0  0  0  0  0  0  0  0
   -2.3549    2.6903    1.4983 C   0  0  0  0  0  0  0  0  0  0  0  0
   -3.7516    1.7037    1.8483 S   0  0  0  0  0  0  0  0  0  0  0  0
   -3.2998    1.5589    3.5230 C   0  0  0  0  0  0  0  0  0  0  0  0
   -2.1613    2.2929    3.7814 C   0  0  0  0  0  0  0  0  0  0  0  0
   -1.6149    2.9200    2.6397 C   0  0  0  0  0  0  0  0  0  0  0  0
   -0.4093    3.7996    2.7286 C   0  0  0  0  0  0  0  0  0  0  0  0
   -0.2117    4.2863    4.1605 C   0  0  0  0  0  0  0  0  0  0  0  0
   -0.1867    3.0856    5.1025 C   0  0  0  0  0  0  0  0  0  0  0  0
    0.2447    3.4506    6.4972 C   0  0  0  0  0  0  0  0  0  0  0  0
    0.6403    4.5233    6.8532 O   0  0  0  0  0  0  0  0  0  0  0  0
   -1.5678    2.4197    5.1529 C   0  0  0  0  0  0  0  0  0  0  0  0
   -4.1182    0.8917    4.4930 C   0  0  0  0  0  0  0  0  0  0  0  0
   -4.8960   -0.2021    4.3298 C   0  0  0  0  0  0  0  0  0  0  0  0
   -4.9298   -1.1196    3.2427 C   0  0  0  0  0  0  0  0  0  0  0  0
   -3.5909   -1.3910    2.1821 S   0  0  0  0  0  0  0  0  0  0  0  0
   -4.4042   -2.6435    1.2935 C   0  0  0  0  0  0  0  0  0  0  0  0
   -5.6688   -2.8854    1.8503 C   0  0  0  0  0  0  0  0  0  0  0  0
   -5.9592   -2.0243    2.9515 C   0  0  0  0  0  0  0  0  0  0  0  0
   -7.2048   -2.1322    3.6041 C   0  0  0  0  0  0  0  0  0  0  0  0
   -8.1169   -3.0709    3.2219 C   0  0  0  0  0  0  0  0  0  0  0  0
   -9.4436   -3.2136    3.8958 C   0  0  0  0  0  0  0  0  0  0  0  0
   -7.7993   -3.9653    2.1534 C   0  0  0  0  0  0  0  0  0  0  0  0
   -8.7702   -4.8837    1.8814 O   0  0  0  0  0  0  0  0  0  0  0  0
   -8.5562   -5.7984    0.8374 C   0  0  0  0  0  0  0  0  0  0  0  0
   -6.6060   -3.8743    1.4869 C   0  0  0  0  0  0  0  0  0  0  0  0
   -3.7191   -3.1686    0.1729 C   0  0  0  0  0  0  0  0  0  0  0  0
   -4.2363   -3.8621   -0.8718 C   0  0  0  0  0  0  0  0  0  0  0  0
   -3.4593   -4.3022   -1.9746 C   0  0  0  0  0  0  0  0  0  0  0  0
   -1.7590   -3.9515   -2.0837 S   0  0  0  0  0  0  0  0  0  0  0  0
   -1.6362   -4.7675   -3.6144 C   0  0  0  0  0  0  0  0  0  0  0  0
   -2.8677   -5.2608   -4.0118 C   0  0  0  0  0  0  0  0  0  0  0  0
   -3.8902   -5.0199   -3.0796 C   0  0  0  0  0  0  0  0  0  0  0  0
   -5.3037   -5.4727   -3.2890 C   0  0  0  0  0  0  0  0  0  0  0  0
   -5.4000   -6.5005   -4.4144 C   0  0  0  0  0  0  0  0  0  0  0  0
   -4.5814   -6.0638   -5.6402 C   0  0  0  0  0  0  0  0  0  0  0  0
   -5.0697   -4.7140   -6.0989 C   0  0  0  0  0  0  0  0  0  0  0  0
   -5.9807   -4.5368   -6.8578 O   0  0  0  0  0  0  0  0  0  0  0  0
   -3.0964   -6.0251   -5.2792 C   0  0  0  0  0  0  0  0  0  0  0  0
   -0.4285   -4.7747   -4.3809 C   0  0  0  0  0  0  0  0  0  0  0  0
    0.8372   -4.6314   -3.9428 C   0  0  0  0  0  0  0  0  0  0  0  0
    1.3169   -4.6653   -2.5875 C   0  0  0  0  0  0  0  0  0  0  0  0
    0.7045   -5.7822   -1.4056 S   0  0  0  0  0  0  0  0  0  0  0  0
    1.8678   -5.2593   -0.2285 C   0  0  0  0  0  0  0  0  0  0  0  0
    2.6908   -4.2844   -0.7492 C   0  0  0  0  0  0  0  0  0  0  0  0
    2.3818   -3.9528   -2.0836 C   0  0  0  0  0  0  0  0  0  0  0  0
    3.1240   -2.9002   -2.8486 C   0  0  0  0  0  0  0  0  0  0  0  0
    3.8678   -1.9771   -1.8901 C   0  0  0  0  0  0  0  0  0  0  0  0
    4.7047   -2.8057   -0.9194 C   0  0  0  0  0  0  0  0  0  0  0  0
    5.6063   -1.9573   -0.0680 C   0  0  0  0  0  0  0  0  0  0  0  0
    5.6047   -0.7586   -0.0263 O   0  0  0  0  0  0  0  0  0  0  0  0
    3.7910   -3.6138    0.0180 C   0  0  0  0  0  0  0  0  0  0  0  0
    1.8896   -5.8137    1.0952 C   0  0  0  0  0  0  0  0  0  0  0  0
    1.0485   -6.7424    1.5436 C   0  0  0  0  0  0  0  0  0  0  0  0
    9.5893    3.8691   -0.8119 H   0  0  0  0  0  0  0  0  0  0  0  0
    9.8900    5.6632   -2.8826 H   0  0  0  0  0  0  0  0  0  0  0  0
    9.4006    6.9363   -1.7653 H   0  0  0  0  0  0  0  0  0  0  0  0
    8.8570    7.6625   -4.0369 H   0  0  0  0  0  0  0  0  0  0  0  0
    7.9835    6.1573   -4.3571 H   0  0  0  0  0  0  0  0  0  0  0  0
    7.2302    8.1270   -2.1626 H   0  0  0  0  0  0  0  0  0  0  0  0
    6.9649    9.1852   -4.3882 H   0  0  0  0  0  0  0  0  0  0  0  0
    5.5360    5.9254   -3.4170 H   0  0  0  0  0  0  0  0  0  0  0  0
    5.2045    6.8161   -1.9390 H   0  0  0  0  0  0  0  0  0  0  0  0
    4.0647    4.8674   -1.3079 H   0  0  0  0  0  0  0  0  0  0  0  0
    4.8051    2.3341    0.2410 H   0  0  0  0  0  0  0  0  0  0  0  0
    3.5022    0.1658    0.4011 H   0  0  0  0  0  0  0  0  0  0  0  0
    3.5309    1.0344    1.9220 H   0  0  0  0  0  0  0  0  0  0  0  0
    1.5184    0.0026    2.7116 H   0  0  0  0  0  0  0  0  0  0  0  0
    2.4328   -1.3021    1.9567 H   0  0  0  0  0  0  0  0  0  0  0  0
    1.0844   -0.8360   -0.1927 H   0  0  0  0  0  0  0  0  0  0  0  0
   -0.5743   -1.5873    2.2890 H   0  0  0  0  0  0  0  0  0  0  0  0
   -0.9627    0.5720    0.0900 H   0  0  0  0  0  0  0  0  0  0  0  0
   -0.5624    0.8220    1.7857 H   0  0  0  0  0  0  0  0  0  0  0  0
   -1.1468    3.9533   -1.4598 H   0  0  0  0  0  0  0  0  0  0  0  0
   -3.1366    3.4265   -0.3304 H   0  0  0  0  0  0  0  0  0  0  0  0
    0.4788    3.2401    2.4163 H   0  0  0  0  0  0  0  0  0  0  0  0
   -0.5152    4.6412    2.0411 H   0  0  0  0  0  0  0  0  0  0  0  0
   -1.0262    4.9528    4.4497 H   0  0  0  0  0  0  0  0  0  0  0  0
    0.7228    4.8421    4.2448 H   0  0  0  0  0  0  0  0  0  0  0  0
    0.5433    2.3533    4.7319 H   0  0  0  0  0  0  0  0  0  0  0  0
    0.1611    2.6057    7.2129 H   0  0  0  0  0  0  0  0  0  0  0  0
   -1.5002    1.4362    5.6257 H   0  0  0  0  0  0  0  0  0  0  0  0
   -2.2379    3.0324    5.7675 H   0  0  0  0  0  0  0  0  0  0  0  0
   -4.1321    1.3712    5.4651 H   0  0  0  0  0  0  0  0  0  0  0  0
   -5.5608   -0.4575    5.1460 H   0  0  0  0  0  0  0  0  0  0  0  0
   -7.4361   -1.4624    4.4185 H   0  0  0  0  0  0  0  0  0  0  0  0
   -9.5430   -4.2128    4.3171 H   0  0  0  0  0  0  0  0  0  0  0  0
   -9.5577   -2.4777    4.6871 H   0  0  0  0  0  0  0  0  0  0  0  0
  -10.2458   -3.0878    3.1704 H   0  0  0  0  0  0  0  0  0  0  0  0
   -7.6882   -6.4373    1.0320 H   0  0  0  0  0  0  0  0  0  0  0  0
   -9.4533   -6.4143    0.7957 H   0  0  0  0  0  0  0  0  0  0  0  0
   -8.4236   -5.2883   -0.1228 H   0  0  0  0  0  0  0  0  0  0  0  0
   -6.3545   -4.5687    0.7051 H   0  0  0  0  0  0  0  0  0  0  0  0
   -2.6610   -2.9358    0.1364 H   0  0  0  0  0  0  0  0  0  0  0  0
   -5.2934   -4.0693   -0.9303 H   0  0  0  0  0  0  0  0  0  0  0  0
   -5.9278   -4.6048   -3.5293 H   0  0  0  0  0  0  0  0  0  0  0  0
   -5.6951   -5.9102   -2.3668 H   0  0  0  0  0  0  0  0  0  0  0  0
   -5.0103   -7.4608   -4.0695 H   0  0  0  0  0  0  0  0  0  0  0  0
   -6.4442   -6.6377   -4.7000 H   0  0  0  0  0  0  0  0  0  0  0  0
   -4.7582   -6.7817   -6.4479 H   0  0  0  0  0  0  0  0  0  0  0  0
   -4.5143   -3.8607   -5.6620 H   0  0  0  0  0  0  0  0  0  0  0  0
   -2.7309   -7.0493   -5.1540 H   0  0  0  0  0  0  0  0  0  0  0  0
   -2.5268   -5.5791   -6.0987 H   0  0  0  0  0  0  0  0  0  0  0  0
   -0.5763   -4.8535   -5.4518 H   0  0  0  0  0  0  0  0  0  0  0  0
    1.6154   -4.5070   -4.6873 H   0  0  0  0  0  0  0  0  0  0  0  0
    3.8385   -3.3815   -3.5263 H   0  0  0  0  0  0  0  0  0  0  0  0
    2.4277   -2.3247   -3.4616 H   0  0  0  0  0  0  0  0  0  0  0  0
    4.5110   -1.2901   -2.4427 H   0  0  0  0  0  0  0  0  0  0  0  0
    3.1492   -1.3810   -1.3253 H   0  0  0  0  0  0  0  0  0  0  0  0
    5.3337   -3.5067   -1.4811 H   0  0  0  0  0  0  0  0  0  0  0  0
    6.2887   -2.5484    0.5764 H   0  0  0  0  0  0  0  0  0  0  0  0
    4.3806   -4.3555    0.5629 H   0  0  0  0  0  0  0  0  0  0  0  0
    3.3451   -2.9383    0.7561 H   0  0  0  0  0  0  0  0  0  0  0  0
    2.6543   -5.4165    1.7506 H   0  0  0  0  0  0  0  0  0  0  0  0
    0.2740   -7.1461    0.9134 H   0  0  0  0  0  0  0  0  0  0  0  0
    1.1058   -7.1206    2.5489 H   0  0  0  0  0  0  0  0  0  0  0  0
  1  2  1  0  0  0  0
  2  3  1  0  0  0  0
  3  4  2  0  0  0  0
  4  5  1  0  0  0  0
  5  6  1  0  0  0  0
  6  7  1  0  0  0  0
  7  8  1  0  0  0  0
  8  9  1  0  0  0  0
  9 10  2  0  0  0  0
  8 11  1  0  0  0  0
  3 12  1  0  0  0  0
 12 13  2  0  0  0  0
 13 14  1  0  0  0  0
 14 15  1  0  0  0  0
 15 16  1  0  0  0  0
 16 17  2  0  0  0  0
 17 18  1  0  0  0  0
 18 19  1  0  0  0  0
 19 20  1  0  0  0  0
 20 21  1  0  0  0  0
 21 22  1  0  0  0  0
 22 23  2  0  0  0  0
 21 24  1  0  0  0  0
 16 25  1  0  0  0  0
 25 26  2  0  0  0  0
 26 27  1  0  0  0  0
 27 28  1  0  0  0  0
 28 29  1  0  0  0  0
 29 30  2  0  0  0  0
 30 31  1  0  0  0  0
 31 32  1  0  0  0  0
 32 33  1  0  0  0  0
 33 34  1  0  0  0  0
 34 35  1  0  0  0  0
 35 36  2  0  0  0  0
 34 37  1  0  0  0  0
 29 38  1  0  0  0  0
 38 39  2  0  0  0  0
 39 40  1  0  0  0  0
 40 41  1  0  0  0  0
 41 42  1  0  0  0  0
 42 43  2  0  0  0  0
 43 44  1  0  0  0  0
 44 45  1  0  0  0  0
 45 46  2  0  0  0  0
 46 47  1  0  0  0  0
 46 48  1  0  0  0  0
 48 49  1  0  0  0  0
 49 50  1  0  0  0  0
 48 51  2  0  0  0  0
 42 52  1  0  0  0  0
 52 53  2  0  0  0  0
 53 54  1  0  0  0  0
 54 55  1  0  0  0  0
 55 56  1  0  0  0  0
 56 57  2  0  0  0  0
 57 58  1  0  0  0  0
 58 59  1  0  0  0  0
 59 60  1  0  0  0  0
 60 61  1  0  0  0  0
 61 62  1  0  0  0  0
 62 63  2  0  0  0  0
 61 64  1  0  0  0  0
 56 65  1  0  0  0  0
 65 66  2  0  0  0  0
 66 67  1  0  0  0  0
 67 68  1  0  0  0  0
 68 69  1  0  0  0  0
 69 70  2  0  0  0  0
 70 71  1  0  0  0  0
 71 72  1  0  0  0  0
 72 73  1  0  0  0  0
 73 74  1  0  0  0  0
 74 75  1  0  0  0  0
 75 76  2  0  0  0  0
 74 77  1  0  0  0  0
 69 78  1  0  0  0  0
 78 79  2  0  0  0  0
  5  1  2  0  0  0  0
 18 14  2  0  0  0  0
 31 27  2  0  0  0  0
 44 40  2  0  0  0  0
 58 54  2  0  0  0  0
 71 67  2  0  0  0  0
 11  4  1  0  0  0  0
 24 17  1  0  0  0  0
 37 30  1  0  0  0  0
 51 43  1  0  0  0  0
 64 57  1  0  0  0  0
 77 70  1  0  0  0  0
  1 80  1  0  0  0  0
  6 81  1  0  0  0  0
  6 82  1  0  0  0  0
  7 83  1  0  0  0  0
  7 84  1  0  0  0  0
  8 85  1  0  0  0  0
  9 86  1  0  0  0  0
 11 87  1  0  0  0  0
 11 88  1  0  0  0  0
 12 89  1  0  0  0  0
 13 90  1  0  0  0  0
 19 91  1  0  0  0  0
 19 92  1  0  0  0  0
 20 93  1  0  0  0  0
 20 94  1  0  0  0  0
 21 95  1  0  0  0  0
 22 96  1  0  0  0  0
 24 97  1  0  0  0  0
 24 98  1  0  0  0  0
 25 99  1  0  0  0  0
 26100  1  0  0  0  0
 32101  1  0  0  0  0
 32102  1  0  0  0  0
 33103  1  0  0  0  0
 33104  1  0  0  0  0
 34105  1  0  0  0  0
 35106  1  0  0  0  0
 37107  1  0  0  0  0
 37108  1  0  0  0  0
 38109  1  0  0  0  0
 39110  1  0  0  0  0
 45111  1  0  0  0  0
 47112  1  0  0  0  0
 47113  1  0  0  0  0
 47114  1  0  0  0  0
 50115  1  0  0  0  0
 50116  1  0  0  0  0
 50117  1  0  0  0  0
 51118  1  0  0  0  0
 52119  1  0  0  0  0
 53120  1  0  0  0  0
 59121  1  0  0  0  0
 59122  1  0  0  0  0
 60123  1  0  0  0  0
 60124  1  0  0  0  0
 61125  1  0  0  0  0
 62126  1  0  0  0  0
 64127  1  0  0  0  0
 64128  1  0  0  0  0
 65129  1  0  0  0  0
 66130  1  0  0  0  0
 72131  1  0  0  0  0
 72132  1  0  0  0  0
 73133  1  0  0  0  0
 73134  1  0  0  0  0
 74135  1  0  0  0  0
 75136  1  0  0  0  0
 77137  1  0  0  0  0
 77138  1  0  0  0  0
 78139  1  0  0  0  0
 79140  1  0  0  0  0
 79141  1  0  0  0  0
M  END
