
  xtb     03042213093D
 energy: -328.148385926278 gnorm: 0.000408614149 xtb: 6.4.1 (unknown)
198215  0     0  0            999 V2000
    7.5430   -4.1396    3.2390 C   0  0  0  0  0  0  0  0  0  0  0  0
    7.1691   -3.1037    4.0166 C   0  0  0  0  0  0  0  0  0  0  0  0
    5.7615   -2.8730    3.9958 C   0  0  0  0  0  0  0  0  0  0  0  0
    5.0397   -1.8567    4.6411 C   0  0  0  0  0  0  0  0  0  0  0  0
    5.6922   -0.9040    5.5479 C   0  0  0  0  0  0  0  0  0  0  0  0
    6.5012   -1.3491    6.5927 C   0  0  0  0  0  0  0  0  0  0  0  0
    7.0862   -0.4517    7.4587 C   0  0  0  0  0  0  0  0  0  0  0  0
    6.9030    0.9238    7.3144 C   0  0  0  0  0  0  0  0  0  0  0  0
    7.7454    1.9661    8.4632 S   0  0  0  0  0  0  0  0  0  0  0  0
    6.6742    3.4532    8.5986 C   0  0  0  0  0  0  0  0  0  0  0  0
    6.9750    4.1516    9.9101 C   0  0  0  0  0  0  0  0  0  0  0  0
    6.1121    1.3540    6.2535 C   0  0  0  0  0  0  0  0  0  0  0  0
    5.9204    2.6715    6.0178 F   0  0  0  0  0  0  0  0  0  0  0  0
    5.5017    0.4642    5.3928 C   0  0  0  0  0  0  0  0  0  0  0  0
    3.6770   -1.8107    4.3951 C   0  0  0  0  0  0  0  0  0  0  0  0
    3.0034   -2.7398    3.5640 C   0  0  0  0  0  0  0  0  0  0  0  0
    3.7282   -3.7472    2.9054 C   0  0  0  0  0  0  0  0  0  0  0  0
    3.0751   -4.6824    1.9832 C   0  0  0  0  0  0  0  0  0  0  0  0
    2.2444   -4.2183    0.9660 C   0  0  0  0  0  0  0  0  0  0  0  0
    1.6514   -5.0893    0.0730 C   0  0  0  0  0  0  0  0  0  0  0  0
    1.8730   -6.4587    0.1641 C   0  0  0  0  0  0  0  0  0  0  0  0
    1.1794   -7.6775   -0.9036 S   0  0  0  0  0  0  0  0  0  0  0  0
    0.6589   -6.7218   -2.3677 C   0  0  0  0  0  0  0  0  0  0  0  0
    1.8350   -6.1721   -3.1505 C   0  0  0  0  0  0  0  0  0  0  0  0
    2.6936   -6.9114    1.1978 C   0  0  0  0  0  0  0  0  0  0  0  0
    3.2920   -6.0542    2.0928 C   0  0  0  0  0  0  0  0  0  0  0  0
    2.9111   -8.2359    1.3287 F   0  0  0  0  0  0  0  0  0  0  0  0
    5.0941   -3.7905    3.1498 C   0  0  0  0  0  0  0  0  0  0  0  0
    6.2225   -4.9100    2.4273 S   0  0  0  0  0  0  0  0  0  0  0  0
    1.6059   -2.5217    3.5530 C   0  0  0  0  0  0  0  0  0  0  0  0
    1.1999   -1.4505    4.3034 C   0  0  0  0  0  0  0  0  0  0  0  0
    2.5608   -0.6624    5.0874 S   0  0  0  0  0  0  0  0  0  0  0  0
   -0.1377   -1.0136    4.4760 C   0  0  0  0  0  0  0  0  0  0  0  0
   -1.4214   -2.1100    4.0725 S   0  0  0  0  0  0  0  0  0  0  0  0
   -2.6627   -0.9670    4.4721 C   0  0  0  0  0  0  0  0  0  0  0  0
   -2.0791    0.2380    4.9113 C   0  0  0  0  0  0  0  0  0  0  0  0
   -0.6545    0.2127    4.9072 C   0  0  0  0  0  0  0  0  0  0  0  0
    0.0527    1.3792    5.2604 C   0  0  0  0  0  0  0  0  0  0  0  0
   -0.6065    2.5307    5.5780 C   0  0  0  0  0  0  0  0  0  0  0  0
    0.1310    3.7788    5.9390 C   0  0  0  0  0  0  0  0  0  0  0  0
   -2.0342    2.5560    5.5521 C   0  0  0  0  0  0  0  0  0  0  0  0
   -2.5852    3.7716    5.8399 O   0  0  0  0  0  0  0  0  0  0  0  0
   -3.9845    3.8972    5.8014 C   0  0  0  0  0  0  0  0  0  0  0  0
   -2.7530    1.4299    5.2391 C   0  0  0  0  0  0  0  0  0  0  0  0
   -4.0438   -1.2684    4.4710 C   0  0  0  0  0  0  0  0  0  0  0  0
   -4.7754   -2.1678    3.7413 C   0  0  0  0  0  0  0  0  0  0  0  0
   -4.4719   -2.8749    2.5648 C   0  0  0  0  0  0  0  0  0  0  0  0
   -3.0443   -2.6208    1.6142 S   0  0  0  0  0  0  0  0  0  0  0  0
   -3.6140   -3.5973    0.2896 C   0  0  0  0  0  0  0  0  0  0  0  0
   -4.8764   -4.1425    0.6014 C   0  0  0  0  0  0  0  0  0  0  0  0
   -5.3552   -3.7408    1.8776 C   0  0  0  0  0  0  0  0  0  0  0  0
   -6.6022   -4.2203    2.3153 C   0  0  0  0  0  0  0  0  0  0  0  0
   -7.3538   -5.0485    1.5276 C   0  0  0  0  0  0  0  0  0  0  0  0
   -8.6819   -5.5732    1.9701 C   0  0  0  0  0  0  0  0  0  0  0  0
   -6.8706   -5.4320    0.2429 C   0  0  0  0  0  0  0  0  0  0  0  0
   -7.7063   -6.2484   -0.4579 O   0  0  0  0  0  0  0  0  0  0  0  0
   -7.3236   -6.6522   -1.7475 C   0  0  0  0  0  0  0  0  0  0  0  0
   -5.6516   -4.9887   -0.2081 C   0  0  0  0  0  0  0  0  0  0  0  0
   -2.8643   -3.7200   -0.8847 C   0  0  0  0  0  0  0  0  0  0  0  0
   -1.6776   -3.0536   -1.0554 C   0  0  0  0  0  0  0  0  0  0  0  0
   -0.8553   -2.9367   -2.1783 C   0  0  0  0  0  0  0  0  0  0  0  0
    0.3481   -1.6804   -2.0872 S   0  0  0  0  0  0  0  0  0  0  0  0
    0.7876   -1.8298   -3.7687 C   0  0  0  0  0  0  0  0  0  0  0  0
    0.1266   -2.9439   -4.3346 C   0  0  0  0  0  0  0  0  0  0  0  0
   -0.8016   -3.5598   -3.4464 C   0  0  0  0  0  0  0  0  0  0  0  0
   -1.4912   -4.7071   -3.8758 C   0  0  0  0  0  0  0  0  0  0  0  0
   -1.2790   -5.2364   -5.1202 C   0  0  0  0  0  0  0  0  0  0  0  0
   -1.9294   -6.5056   -5.5715 C   0  0  0  0  0  0  0  0  0  0  0  0
   -0.3792   -4.5912   -6.0138 C   0  0  0  0  0  0  0  0  0  0  0  0
   -0.2555   -5.1918   -7.2282 O   0  0  0  0  0  0  0  0  0  0  0  0
    0.5716   -4.5926   -8.1934 C   0  0  0  0  0  0  0  0  0  0  0  0
    0.3118   -3.4695   -5.6227 C   0  0  0  0  0  0  0  0  0  0  0  0
    1.4753   -0.7345   -4.2980 C   0  0  0  0  0  0  0  0  0  0  0  0
    1.6642   -0.3384   -5.5993 C   0  0  0  0  0  0  0  0  0  0  0  0
    1.8821    1.0105   -5.9174 C   0  0  0  0  0  0  0  0  0  0  0  0
    1.7130    2.2359   -4.6885 S   0  0  0  0  0  0  0  0  0  0  0  0
    1.6916    3.5348   -5.8363 C   0  0  0  0  0  0  0  0  0  0  0  0
    1.9250    3.0383   -7.1292 C   0  0  0  0  0  0  0  0  0  0  0  0
    2.0158    1.6165   -7.1796 C   0  0  0  0  0  0  0  0  0  0  0  0
    2.2055    0.9806   -8.4190 C   0  0  0  0  0  0  0  0  0  0  0  0
    2.3072    1.7084   -9.5708 C   0  0  0  0  0  0  0  0  0  0  0  0
    2.5180    1.0635  -10.9031 C   0  0  0  0  0  0  0  0  0  0  0  0
    2.2117    3.1324   -9.5150 C   0  0  0  0  0  0  0  0  0  0  0  0
    2.3274    3.7496  -10.7236 O   0  0  0  0  0  0  0  0  0  0  0  0
    2.2495    5.1516  -10.7740 C   0  0  0  0  0  0  0  0  0  0  0  0
    2.0182    3.7814   -8.3224 C   0  0  0  0  0  0  0  0  0  0  0  0
    1.5157    4.8895   -5.4498 C   0  0  0  0  0  0  0  0  0  0  0  0
    0.9684    5.3870   -4.3133 C   0  0  0  0  0  0  0  0  0  0  0  0
    0.2669    4.6736   -3.2844 C   0  0  0  0  0  0  0  0  0  0  0  0
   -0.5746    3.6046   -3.3758 C   0  0  0  0  0  0  0  0  0  0  0  0
   -1.0697    3.1431   -2.1293 C   0  0  0  0  0  0  0  0  0  0  0  0
   -1.9103    2.0461   -1.8784 C   0  0  0  0  0  0  0  0  0  0  0  0
   -2.3947    1.1328   -2.9176 C   0  0  0  0  0  0  0  0  0  0  0  0
   -1.5443    0.5876   -3.8773 C   0  0  0  0  0  0  0  0  0  0  0  0
   -1.9899   -0.3888   -4.7412 C   0  0  0  0  0  0  0  0  0  0  0  0
   -3.2990   -0.8635   -4.6888 C   0  0  0  0  0  0  0  0  0  0  0  0
   -3.7356   -2.1846   -5.7752 S   0  0  0  0  0  0  0  0  0  0  0  0
   -5.0280   -3.0845   -4.8261 C   0  0  0  0  0  0  0  0  0  0  0  0
   -5.1203   -4.5075   -5.3378 C   0  0  0  0  0  0  0  0  0  0  0  0
   -4.1627   -0.2442   -3.7909 C   0  0  0  0  0  0  0  0  0  0  0  0
   -5.4771   -0.5659   -3.7481 F   0  0  0  0  0  0  0  0  0  0  0  0
   -3.7253    0.7236   -2.9127 C   0  0  0  0  0  0  0  0  0  0  0  0
   -2.2403    1.8068   -0.5493 C   0  0  0  0  0  0  0  0  0  0  0  0
   -1.8104    2.6258    0.5179 C   0  0  0  0  0  0  0  0  0  0  0  0
   -1.0114    3.7513    0.2639 C   0  0  0  0  0  0  0  0  0  0  0  0
   -0.6610    4.6756    1.3491 C   0  0  0  0  0  0  0  0  0  0  0  0
   -1.6635    5.1748    2.1770 C   0  0  0  0  0  0  0  0  0  0  0  0
   -1.3814    6.0652    3.1940 C   0  0  0  0  0  0  0  0  0  0  0  0
   -0.0766    6.4863    3.4241 C   0  0  0  0  0  0  0  0  0  0  0  0
    0.4373    7.6187    4.6736 S   0  0  0  0  0  0  0  0  0  0  0  0
   -1.1112    8.1428    5.4890 C   0  0  0  0  0  0  0  0  0  0  0  0
   -1.5953    7.1533    6.5331 C   0  0  0  0  0  0  0  0  0  0  0  0
    0.9196    5.9749    2.5889 C   0  0  0  0  0  0  0  0  0  0  0  0
    0.6494    5.0929    1.5670 C   0  0  0  0  0  0  0  0  0  0  0  0
    2.1958    6.3593    2.7916 F   0  0  0  0  0  0  0  0  0  0  0  0
   -0.6277    3.9571   -1.0534 C   0  0  0  0  0  0  0  0  0  0  0  0
    0.4019    5.2427   -1.6244 S   0  0  0  0  0  0  0  0  0  0  0  0
   -2.2437    2.1191    1.7802 C   0  0  0  0  0  0  0  0  0  0  0  0
   -2.9646    0.9862    1.6695 C   0  0  0  0  0  0  0  0  0  0  0  0
   -3.1665    0.4482    0.0395 S   0  0  0  0  0  0  0  0  0  0  0  0
    8.5327   -4.5200    3.0778 H   0  0  0  0  0  0  0  0  0  0  0  0
    7.8581   -2.4993    4.5782 H   0  0  0  0  0  0  0  0  0  0  0  0
    6.6444   -2.4085    6.7421 H   0  0  0  0  0  0  0  0  0  0  0  0
    7.7009   -0.8002    8.2741 H   0  0  0  0  0  0  0  0  0  0  0  0
    6.8785    4.1048    7.7505 H   0  0  0  0  0  0  0  0  0  0  0  0
    5.6412    3.1108    8.5618 H   0  0  0  0  0  0  0  0  0  0  0  0
    6.3486    5.0359   10.0057 H   0  0  0  0  0  0  0  0  0  0  0  0
    8.0181    4.4573    9.9487 H   0  0  0  0  0  0  0  0  0  0  0  0
    6.7788    3.4895   10.7505 H   0  0  0  0  0  0  0  0  0  0  0  0
    4.9051    0.8562    4.5841 H   0  0  0  0  0  0  0  0  0  0  0  0
    2.0770   -3.1576    0.8539 H   0  0  0  0  0  0  0  0  0  0  0  0
    1.0101   -4.6876   -0.6950 H   0  0  0  0  0  0  0  0  0  0  0  0
   -0.0243   -5.9385   -2.0458 H   0  0  0  0  0  0  0  0  0  0  0  0
    0.1023   -7.4454   -2.9628 H   0  0  0  0  0  0  0  0  0  0  0  0
    2.4154   -5.4780   -2.5461 H   0  0  0  0  0  0  0  0  0  0  0  0
    1.4743   -5.6458   -4.0321 H   0  0  0  0  0  0  0  0  0  0  0  0
    2.4882   -6.9821   -3.4663 H   0  0  0  0  0  0  0  0  0  0  0  0
    3.9106   -6.4624    2.8762 H   0  0  0  0  0  0  0  0  0  0  0  0
    0.9124   -3.1395    3.0109 H   0  0  0  0  0  0  0  0  0  0  0  0
    1.1306    1.3682    5.2646 H   0  0  0  0  0  0  0  0  0  0  0  0
    1.1992    3.5912    5.9985 H   0  0  0  0  0  0  0  0  0  0  0  0
   -0.2216    4.1607    6.8953 H   0  0  0  0  0  0  0  0  0  0  0  0
   -0.0478    4.5471    5.1890 H   0  0  0  0  0  0  0  0  0  0  0  0
   -4.1979    4.9357    6.0511 H   0  0  0  0  0  0  0  0  0  0  0  0
   -4.4679    3.2459    6.5363 H   0  0  0  0  0  0  0  0  0  0  0  0
   -4.3792    3.6748    4.8043 H   0  0  0  0  0  0  0  0  0  0  0  0
   -3.8304    1.4416    5.2112 H   0  0  0  0  0  0  0  0  0  0  0  0
   -4.6117   -0.6823    5.1856 H   0  0  0  0  0  0  0  0  0  0  0  0
   -5.8038   -2.2885    4.0596 H   0  0  0  0  0  0  0  0  0  0  0  0
   -6.9728   -3.9399    3.2897 H   0  0  0  0  0  0  0  0  0  0  0  0
   -9.4569   -5.2638    1.2704 H   0  0  0  0  0  0  0  0  0  0  0  0
   -8.9314   -5.2115    2.9639 H   0  0  0  0  0  0  0  0  0  0  0  0
   -8.6696   -6.6619    1.9772 H   0  0  0  0  0  0  0  0  0  0  0  0
   -7.1915   -5.7926   -2.4135 H   0  0  0  0  0  0  0  0  0  0  0  0
   -8.1388   -7.2720   -2.1178 H   0  0  0  0  0  0  0  0  0  0  0  0
   -6.4015   -7.2427   -1.7285 H   0  0  0  0  0  0  0  0  0  0  0  0
   -5.2721   -5.2777   -1.1745 H   0  0  0  0  0  0  0  0  0  0  0  0
   -3.2846   -4.3180   -1.6787 H   0  0  0  0  0  0  0  0  0  0  0  0
   -1.3588   -2.4417   -0.2183 H   0  0  0  0  0  0  0  0  0  0  0  0
   -2.1667   -5.2080   -3.1999 H   0  0  0  0  0  0  0  0  0  0  0  0
   -1.1646   -7.2453   -5.8054 H   0  0  0  0  0  0  0  0  0  0  0  0
   -2.5850   -6.9077   -4.8029 H   0  0  0  0  0  0  0  0  0  0  0  0
   -2.4978   -6.3362   -6.4847 H   0  0  0  0  0  0  0  0  0  0  0  0
    0.2436   -3.5737   -8.4236 H   0  0  0  0  0  0  0  0  0  0  0  0
    1.6190   -4.5762   -7.8734 H   0  0  0  0  0  0  0  0  0  0  0  0
    0.4797   -5.2102   -9.0854 H   0  0  0  0  0  0  0  0  0  0  0  0
    1.0306   -3.0064   -6.2755 H   0  0  0  0  0  0  0  0  0  0  0  0
    1.7553   -0.0018   -3.5471 H   0  0  0  0  0  0  0  0  0  0  0  0
    1.5243   -1.0137   -6.4284 H   0  0  0  0  0  0  0  0  0  0  0  0
    2.2822   -0.0959   -8.4570 H   0  0  0  0  0  0  0  0  0  0  0  0
    2.5785   -0.0171  -10.8057 H   0  0  0  0  0  0  0  0  0  0  0  0
    3.4354    1.4347  -11.3571 H   0  0  0  0  0  0  0  0  0  0  0  0
    1.6996    1.3182  -11.5750 H   0  0  0  0  0  0  0  0  0  0  0  0
    2.3685    5.4163  -11.8236 H   0  0  0  0  0  0  0  0  0  0  0  0
    3.0488    5.6202  -10.1904 H   0  0  0  0  0  0  0  0  0  0  0  0
    1.2797    5.5139  -10.4174 H   0  0  0  0  0  0  0  0  0  0  0  0
    1.9395    4.8550   -8.2742 H   0  0  0  0  0  0  0  0  0  0  0  0
    1.8937    5.6125   -6.1629 H   0  0  0  0  0  0  0  0  0  0  0  0
    1.0640    6.4513   -4.1391 H   0  0  0  0  0  0  0  0  0  0  0  0
   -0.8650    3.1725   -4.3159 H   0  0  0  0  0  0  0  0  0  0  0  0
   -0.5128    0.8977   -3.9122 H   0  0  0  0  0  0  0  0  0  0  0  0
   -1.3173   -0.8239   -5.4637 H   0  0  0  0  0  0  0  0  0  0  0  0
   -4.7274   -3.0566   -3.7790 H   0  0  0  0  0  0  0  0  0  0  0  0
   -5.9749   -2.5624   -4.9530 H   0  0  0  0  0  0  0  0  0  0  0  0
   -5.8915   -5.0479   -4.7914 H   0  0  0  0  0  0  0  0  0  0  0  0
   -4.1700   -5.0166   -5.2089 H   0  0  0  0  0  0  0  0  0  0  0  0
   -5.3766   -4.5153   -6.3948 H   0  0  0  0  0  0  0  0  0  0  0  0
   -4.4438    1.1647   -2.2400 H   0  0  0  0  0  0  0  0  0  0  0  0
   -2.6876    4.8781    2.0060 H   0  0  0  0  0  0  0  0  0  0  0  0
   -2.1908    6.4283    3.8054 H   0  0  0  0  0  0  0  0  0  0  0  0
   -0.8436    9.0910    5.9564 H   0  0  0  0  0  0  0  0  0  0  0  0
   -1.8544    8.3365    4.7167 H   0  0  0  0  0  0  0  0  0  0  0  0
   -0.8327    7.0162    7.2961 H   0  0  0  0  0  0  0  0  0  0  0  0
   -1.8147    6.1831    6.0947 H   0  0  0  0  0  0  0  0  0  0  0  0
   -2.4966    7.5353    7.0102 H   0  0  0  0  0  0  0  0  0  0  0  0
    1.4620    4.7273    0.9598 H   0  0  0  0  0  0  0  0  0  0  0  0
   -1.9932    2.5770    2.7199 H   0  0  0  0  0  0  0  0  0  0  0  0
   -3.4084    0.4035    2.4516 H   0  0  0  0  0  0  0  0  0  0  0  0
  1  2  2  0  0  0  0
  2  3  1  0  0  0  0
  3  4  2  0  0  0  0
  4  5  1  0  0  0  0
  5  6  2  0  0  0  0
  6  7  1  0  0  0  0
  7  8  2  0  0  0  0
  8  9  1  0  0  0  0
  9 10  1  0  0  0  0
 10 11  1  0  0  0  0
  8 12  1  0  0  0  0
 12 13  1  0  0  0  0
 12 14  2  0  0  0  0
  4 15  1  0  0  0  0
 15 16  2  0  0  0  0
 16 17  1  0  0  0  0
 17 18  1  0  0  0  0
 18 19  2  0  0  0  0
 19 20  1  0  0  0  0
 20 21  2  0  0  0  0
 21 22  1  0  0  0  0
 22 23  1  0  0  0  0
 23 24  1  0  0  0  0
 21 25  1  0  0  0  0
 25 26  2  0  0  0  0
 25 27  1  0  0  0  0
 17 28  2  0  0  0  0
 28 29  1  0  0  0  0
 16 30  1  0  0  0  0
 30 31  2  0  0  0  0
 31 32  1  0  0  0  0
 31 33  1  0  0  0  0
 33 34  1  0  0  0  0
 34 35  1  0  0  0  0
 35 36  2  0  0  0  0
 36 37  1  0  0  0  0
 37 38  1  0  0  0  0
 38 39  2  0  0  0  0
 39 40  1  0  0  0  0
 39 41  1  0  0  0  0
 41 42  1  0  0  0  0
 42 43  1  0  0  0  0
 41 44  2  0  0  0  0
 35 45  1  0  0  0  0
 45 46  2  0  0  0  0
 46 47  1  0  0  0  0
 47 48  1  0  0  0  0
 48 49  1  0  0  0  0
 49 50  2  0  0  0  0
 50 51  1  0  0  0  0
 51 52  1  0  0  0  0
 52 53  2  0  0  0  0
 53 54  1  0  0  0  0
 53 55  1  0  0  0  0
 55 56  1  0  0  0  0
 56 57  1  0  0  0  0
 55 58  2  0  0  0  0
 49 59  1  0  0  0  0
 59 60  2  0  0  0  0
 60 61  1  0  0  0  0
 61 62  1  0  0  0  0
 62 63  1  0  0  0  0
 63 64  2  0  0  0  0
 64 65  1  0  0  0  0
 65 66  1  0  0  0  0
 66 67  2  0  0  0  0
 67 68  1  0  0  0  0
 67 69  1  0  0  0  0
 69 70  1  0  0  0  0
 70 71  1  0  0  0  0
 69 72  2  0  0  0  0
 63 73  1  0  0  0  0
 73 74  2  0  0  0  0
 74 75  1  0  0  0  0
 75 76  1  0  0  0  0
 76 77  1  0  0  0  0
 77 78  2  0  0  0  0
 78 79  1  0  0  0  0
 79 80  1  0  0  0  0
 80 81  2  0  0  0  0
 81 82  1  0  0  0  0
 81 83  1  0  0  0  0
 83 84  1  0  0  0  0
 84 85  1  0  0  0  0
 83 86  2  0  0  0  0
 77 87  1  0  0  0  0
 87 88  2  0  0  0  0
 88 89  1  0  0  0  0
 89 90  2  0  0  0  0
 90 91  1  0  0  0  0
 91 92  2  0  0  0  0
 92 93  1  0  0  0  0
 93 94  2  0  0  0  0
 94 95  1  0  0  0  0
 95 96  2  0  0  0  0
 96 97  1  0  0  0  0
 97 98  1  0  0  0  0
 98 99  1  0  0  0  0
 96100  1  0  0  0  0
100101  1  0  0  0  0
100102  2  0  0  0  0
 92103  1  0  0  0  0
103104  2  0  0  0  0
104105  1  0  0  0  0
105106  1  0  0  0  0
106107  2  0  0  0  0
107108  1  0  0  0  0
108109  2  0  0  0  0
109110  1  0  0  0  0
110111  1  0  0  0  0
111112  1  0  0  0  0
109113  1  0  0  0  0
113114  2  0  0  0  0
113115  1  0  0  0  0
105116  2  0  0  0  0
116117  1  0  0  0  0
104118  1  0  0  0  0
118119  2  0  0  0  0
119120  1  0  0  0  0
 29  1  1  0  0  0  0
 37 33  2  0  0  0  0
 51 47  2  0  0  0  0
 65 61  2  0  0  0  0
 79 75  2  0  0  0  0
117 89  1  0  0  0  0
 28  3  1  0  0  0  0
 44 36  1  0  0  0  0
 58 50  1  0  0  0  0
 72 64  1  0  0  0  0
 86 78  1  0  0  0  0
116 91  1  0  0  0  0
 14  5  1  0  0  0  0
 32 15  1  0  0  0  0
102 93  1  0  0  0  0
120103  1  0  0  0  0
 26 18  1  0  0  0  0
114106  1  0  0  0  0
  1121  1  0  0  0  0
  2122  1  0  0  0  0
  6123  1  0  0  0  0
  7124  1  0  0  0  0
 10125  1  0  0  0  0
 10126  1  0  0  0  0
 11127  1  0  0  0  0
 11128  1  0  0  0  0
 11129  1  0  0  0  0
 14130  1  0  0  0  0
 19131  1  0  0  0  0
 20132  1  0  0  0  0
 23133  1  0  0  0  0
 23134  1  0  0  0  0
 24135  1  0  0  0  0
 24136  1  0  0  0  0
 24137  1  0  0  0  0
 26138  1  0  0  0  0
 30139  1  0  0  0  0
 38140  1  0  0  0  0
 40141  1  0  0  0  0
 40142  1  0  0  0  0
 40143  1  0  0  0  0
 43144  1  0  0  0  0
 43145  1  0  0  0  0
 43146  1  0  0  0  0
 44147  1  0  0  0  0
 45148  1  0  0  0  0
 46149  1  0  0  0  0
 52150  1  0  0  0  0
 54151  1  0  0  0  0
 54152  1  0  0  0  0
 54153  1  0  0  0  0
 57154  1  0  0  0  0
 57155  1  0  0  0  0
 57156  1  0  0  0  0
 58157  1  0  0  0  0
 59158  1  0  0  0  0
 60159  1  0  0  0  0
 66160  1  0  0  0  0
 68161  1  0  0  0  0
 68162  1  0  0  0  0
 68163  1  0  0  0  0
 71164  1  0  0  0  0
 71165  1  0  0  0  0
 71166  1  0  0  0  0
 72167  1  0  0  0  0
 73168  1  0  0  0  0
 74169  1  0  0  0  0
 80170  1  0  0  0  0
 82171  1  0  0  0  0
 82172  1  0  0  0  0
 82173  1  0  0  0  0
 85174  1  0  0  0  0
 85175  1  0  0  0  0
 85176  1  0  0  0  0
 86177  1  0  0  0  0
 87178  1  0  0  0  0
 88179  1  0  0  0  0
 90180  1  0  0  0  0
 94181  1  0  0  0  0
 95182  1  0  0  0  0
 98183  1  0  0  0  0
 98184  1  0  0  0  0
 99185  1  0  0  0  0
 99186  1  0  0  0  0
 99187  1  0  0  0  0
102188  1  0  0  0  0
107189  1  0  0  0  0
108190  1  0  0  0  0
111191  1  0  0  0  0
111192  1  0  0  0  0
112193  1  0  0  0  0
112194  1  0  0  0  0
112195  1  0  0  0  0
114196  1  0  0  0  0
118197  1  0  0  0  0
119198  1  0  0  0  0
M  END
