
  xtb     03022211403D
 energy: -461.574578927811 gnorm: 0.000339748873 xtb: 6.4.1 (unknown)
236262  0     0  0            999 V2000
    4.0089   -8.7136   10.2880 C   0  0  0  0  0  0  0  0  0  0  0  0
    4.3479   -7.8076    9.3484 C   0  0  0  0  0  0  0  0  0  0  0  0
    3.3208   -7.6045    8.3816 C   0  0  0  0  0  0  0  0  0  0  0  0
    3.3078   -6.7150    7.2970 C   0  0  0  0  0  0  0  0  0  0  0  0
    4.3868   -5.7686    7.0574 C   0  0  0  0  0  0  0  0  0  0  0  0
    5.1529   -5.6347    5.5021 S   0  0  0  0  0  0  0  0  0  0  0  0
    6.1620   -4.3283    6.0235 C   0  0  0  0  0  0  0  0  0  0  0  0
    7.1532   -3.7001    5.1077 C   0  0  0  0  0  0  0  0  0  0  0  0
    8.3456   -4.6210    4.8454 C   0  0  0  0  0  0  0  0  0  0  0  0
    5.9126   -4.0310    7.3297 C   0  0  0  0  0  0  0  0  0  0  0  0
    6.7105   -2.7847    8.1982 Cl  0  0  0  0  0  0  0  0  0  0  0  0
    4.9056   -4.8426    7.9189 C   0  0  0  0  0  0  0  0  0  0  0  0
    4.3528   -4.6054    9.5268 Cl  0  0  0  0  0  0  0  0  0  0  0  0
    2.1863   -6.7386    6.4780 C   0  0  0  0  0  0  0  0  0  0  0  0
    1.0682   -7.5730    6.7162 C   0  0  0  0  0  0  0  0  0  0  0  0
    1.0713   -8.4466    7.8160 C   0  0  0  0  0  0  0  0  0  0  0  0
   -0.0754   -9.2941    8.1006 C   0  0  0  0  0  0  0  0  0  0  0  0
   -1.6674   -8.6133    8.2699 S   0  0  0  0  0  0  0  0  0  0  0  0
   -2.3827  -10.1584    8.5780 C   0  0  0  0  0  0  0  0  0  0  0  0
   -3.8527  -10.2971    8.7676 C   0  0  0  0  0  0  0  0  0  0  0  0
   -4.5855  -10.2164    7.4262 C   0  0  0  0  0  0  0  0  0  0  0  0
   -1.4324  -11.1343    8.5415 C   0  0  0  0  0  0  0  0  0  0  0  0
   -0.1227  -10.6484    8.2780 C   0  0  0  0  0  0  0  0  0  0  0  0
    1.2266  -11.6913    8.1125 Cl  0  0  0  0  0  0  0  0  0  0  0  0
   -1.7585  -12.8006    8.7895 Cl  0  0  0  0  0  0  0  0  0  0  0  0
    2.2042   -8.4425    8.6222 C   0  0  0  0  0  0  0  0  0  0  0  0
    2.4368   -9.3951   10.0599 S   0  0  0  0  0  0  0  0  0  0  0  0
    0.0515   -7.3848    5.7440 C   0  0  0  0  0  0  0  0  0  0  0  0
    0.3595   -6.4378    4.8158 C   0  0  0  0  0  0  0  0  0  0  0  0
    1.9406   -5.7279    5.0852 S   0  0  0  0  0  0  0  0  0  0  0  0
   -0.4226   -5.9554    3.7262 C   0  0  0  0  0  0  0  0  0  0  0  0
   -0.0333   -5.0129    2.8232 C   0  0  0  0  0  0  0  0  0  0  0  0
   -1.0356   -4.6824    1.8835 C   0  0  0  0  0  0  0  0  0  0  0  0
   -0.9344   -3.7826    0.8133 C   0  0  0  0  0  0  0  0  0  0  0  0
    0.2352   -2.9414    0.6337 C   0  0  0  0  0  0  0  0  0  0  0  0
    0.8052   -1.9740    1.9659 S   0  0  0  0  0  0  0  0  0  0  0  0
    2.0059   -1.2026    0.9950 C   0  0  0  0  0  0  0  0  0  0  0  0
    2.9279   -0.1644    1.5311 C   0  0  0  0  0  0  0  0  0  0  0  0
    2.5576    0.3017    2.9303 C   0  0  0  0  0  0  0  0  0  0  0  0
    1.9668   -1.6887   -0.2785 C   0  0  0  0  0  0  0  0  0  0  0  0
    3.0343   -1.1598   -1.5128 Cl  0  0  0  0  0  0  0  0  0  0  0  0
    0.9613   -2.6670   -0.4925 C   0  0  0  0  0  0  0  0  0  0  0  0
    0.7606   -3.4552   -1.9993 Cl  0  0  0  0  0  0  0  0  0  0  0  0
   -2.0546   -3.6475    0.0048 C   0  0  0  0  0  0  0  0  0  0  0  0
   -3.2816   -4.3095    0.2544 C   0  0  0  0  0  0  0  0  0  0  0  0
   -3.3720   -5.2269    1.3183 C   0  0  0  0  0  0  0  0  0  0  0  0
   -4.5977   -5.9633    1.5785 C   0  0  0  0  0  0  0  0  0  0  0  0
   -5.3650   -6.8794    0.3131 S   0  0  0  0  0  0  0  0  0  0  0  0
   -6.6071   -7.4547    1.3716 C   0  0  0  0  0  0  0  0  0  0  0  0
   -7.6483   -8.4074    0.8974 C   0  0  0  0  0  0  0  0  0  0  0  0
   -7.1503   -9.8517    0.9926 C   0  0  0  0  0  0  0  0  0  0  0  0
   -6.4221   -6.9602    2.6278 C   0  0  0  0  0  0  0  0  0  0  0  0
   -5.2893   -6.1106    2.7491 C   0  0  0  0  0  0  0  0  0  0  0  0
   -4.9133   -5.2947    4.2086 Cl  0  0  0  0  0  0  0  0  0  0  0  0
   -7.4527   -7.3111    3.9539 Cl  0  0  0  0  0  0  0  0  0  0  0  0
   -2.2342   -5.4052    2.1001 C   0  0  0  0  0  0  0  0  0  0  0  0
   -2.0629   -6.5007    3.4462 S   0  0  0  0  0  0  0  0  0  0  0  0
   -4.3176   -3.8353   -0.6016 C   0  0  0  0  0  0  0  0  0  0  0  0
   -3.8933   -2.8913   -1.4809 C   0  0  0  0  0  0  0  0  0  0  0  0
   -2.1796   -2.5506   -1.3265 S   0  0  0  0  0  0  0  0  0  0  0  0
   -4.5635   -1.9966   -2.3878 C   0  0  0  0  0  0  0  0  0  0  0  0
   -5.5997   -1.1524   -2.1350 C   0  0  0  0  0  0  0  0  0  0  0  0
   -5.6482   -0.0486   -3.0301 C   0  0  0  0  0  0  0  0  0  0  0  0
   -6.4346    1.1130   -2.9258 C   0  0  0  0  0  0  0  0  0  0  0  0
   -7.4956    1.2476   -1.9367 C   0  0  0  0  0  0  0  0  0  0  0  0
   -9.1325    1.5655   -2.4246 S   0  0  0  0  0  0  0  0  0  0  0  0
   -9.6923    1.6162   -0.7877 C   0  0  0  0  0  0  0  0  0  0  0  0
  -11.1336    1.8115   -0.4692 C   0  0  0  0  0  0  0  0  0  0  0  0
  -11.8880    0.4803   -0.5061 C   0  0  0  0  0  0  0  0  0  0  0  0
   -8.6590    1.3964    0.0727 C   0  0  0  0  0  0  0  0  0  0  0  0
   -8.8234    1.3741    1.7810 Cl  0  0  0  0  0  0  0  0  0  0  0  0
   -7.4099    1.1946   -0.5750 C   0  0  0  0  0  0  0  0  0  0  0  0
   -5.9401    0.9826    0.2896 Cl  0  0  0  0  0  0  0  0  0  0  0  0
   -6.0698    2.1843   -3.7274 C   0  0  0  0  0  0  0  0  0  0  0  0
   -5.0347    2.1104   -4.6881 C   0  0  0  0  0  0  0  0  0  0  0  0
   -4.4183    0.8740   -4.9672 C   0  0  0  0  0  0  0  0  0  0  0  0
   -3.6043    0.6863   -6.1447 C   0  0  0  0  0  0  0  0  0  0  0  0
   -2.2556   -0.4107   -6.1879 S   0  0  0  0  0  0  0  0  0  0  0  0
   -2.0252   -0.2006   -7.8874 C   0  0  0  0  0  0  0  0  0  0  0  0
   -1.0472   -1.0251   -8.6481 C   0  0  0  0  0  0  0  0  0  0  0  0
   -1.6904   -2.3441   -9.0859 C   0  0  0  0  0  0  0  0  0  0  0  0
   -2.9339    0.6901   -8.3788 C   0  0  0  0  0  0  0  0  0  0  0  0
   -3.8300    1.1936   -7.4032 C   0  0  0  0  0  0  0  0  0  0  0  0
   -5.1394    2.2149   -7.8389 Cl  0  0  0  0  0  0  0  0  0  0  0  0
   -3.0136    1.1534  -10.0312 Cl  0  0  0  0  0  0  0  0  0  0  0  0
   -4.6602   -0.1389   -4.0415 C   0  0  0  0  0  0  0  0  0  0  0  0
   -3.7144   -1.5837   -3.8659 S   0  0  0  0  0  0  0  0  0  0  0  0
   -4.6264    3.3922   -5.1208 C   0  0  0  0  0  0  0  0  0  0  0  0
   -5.3359    4.4154   -4.5601 C   0  0  0  0  0  0  0  0  0  0  0  0
   -6.6372    3.8236   -3.5349 S   0  0  0  0  0  0  0  0  0  0  0  0
   -4.9666    5.7900   -4.5814 C   0  0  0  0  0  0  0  0  0  0  0  0
   -3.2756    6.1545   -4.6236 S   0  0  0  0  0  0  0  0  0  0  0  0
   -3.5356    7.8527   -4.4230 C   0  0  0  0  0  0  0  0  0  0  0  0
   -4.9149    8.1262   -4.3770 C   0  0  0  0  0  0  0  0  0  0  0  0
   -5.7227    6.9504   -4.4341 C   0  0  0  0  0  0  0  0  0  0  0  0
   -7.1276    7.0596   -4.3651 C   0  0  0  0  0  0  0  0  0  0  0  0
   -7.7211    8.2791   -4.2346 C   0  0  0  0  0  0  0  0  0  0  0  0
   -9.2048    8.4368   -4.1558 C   0  0  0  0  0  0  0  0  0  0  0  0
   -6.9094    9.4567   -4.1699 C   0  0  0  0  0  0  0  0  0  0  0  0
   -7.6136   10.6130   -4.0398 O   0  0  0  0  0  0  0  0  0  0  0  0
   -6.9107   11.8272   -3.9551 C   0  0  0  0  0  0  0  0  0  0  0  0
   -5.5424    9.3806   -4.2381 C   0  0  0  0  0  0  0  0  0  0  0  0
   -2.5110    8.8179   -4.2340 C   0  0  0  0  0  0  0  0  0  0  0  0
   -1.2219    8.7181   -3.8319 C   0  0  0  0  0  0  0  0  0  0  0  0
   -0.3852    7.5978   -3.5043 C   0  0  0  0  0  0  0  0  0  0  0  0
    0.5195    7.6155   -2.4783 C   0  0  0  0  0  0  0  0  0  0  0  0
    1.2566    6.4176   -2.3278 C   0  0  0  0  0  0  0  0  0  0  0  0
    2.1963    6.0886   -1.3315 C   0  0  0  0  0  0  0  0  0  0  0  0
    2.4462    6.9777   -0.2106 C   0  0  0  0  0  0  0  0  0  0  0  0
    4.0586    7.4627    0.2235 S   0  0  0  0  0  0  0  0  0  0  0  0
    3.4974    8.4229    1.5488 C   0  0  0  0  0  0  0  0  0  0  0  0
    4.4426    9.2178    2.3800 C   0  0  0  0  0  0  0  0  0  0  0  0
    4.7378   10.5719    1.7304 C   0  0  0  0  0  0  0  0  0  0  0  0
    2.1383    8.3640    1.6348 C   0  0  0  0  0  0  0  0  0  0  0  0
    1.2186    9.1860    2.8283 Cl  0  0  0  0  0  0  0  0  0  0  0  0
    1.5388    7.5425    0.6432 C   0  0  0  0  0  0  0  0  0  0  0  0
   -0.1507    7.2373    0.5954 Cl  0  0  0  0  0  0  0  0  0  0  0  0
    2.8612    4.8769   -1.4671 C   0  0  0  0  0  0  0  0  0  0  0  0
    2.6005    3.9838   -2.5328 C   0  0  0  0  0  0  0  0  0  0  0  0
    1.5894    4.2644   -3.4713 C   0  0  0  0  0  0  0  0  0  0  0  0
    1.3028    3.2912   -4.5105 C   0  0  0  0  0  0  0  0  0  0  0  0
    1.3474    3.7206   -6.1941 S   0  0  0  0  0  0  0  0  0  0  0  0
    1.1848    2.0716   -6.7005 C   0  0  0  0  0  0  0  0  0  0  0  0
    1.1833    1.7049   -8.1437 C   0  0  0  0  0  0  0  0  0  0  0  0
    2.2508    2.4587   -8.9320 C   0  0  0  0  0  0  0  0  0  0  0  0
    1.0750    1.2537   -5.6152 C   0  0  0  0  0  0  0  0  0  0  0  0
    1.1201    1.9414   -4.3731 C   0  0  0  0  0  0  0  0  0  0  0  0
    0.8862    1.1319   -2.8749 Cl  0  0  0  0  0  0  0  0  0  0  0  0
    0.9704   -0.4581   -5.6837 Cl  0  0  0  0  0  0  0  0  0  0  0  0
    0.9530    5.4905   -3.3565 C   0  0  0  0  0  0  0  0  0  0  0  0
   -0.2976    6.0952   -4.4037 S   0  0  0  0  0  0  0  0  0  0  0  0
    3.4493    2.8548   -2.4942 C   0  0  0  0  0  0  0  0  0  0  0  0
    4.2823    2.8276   -1.4140 C   0  0  0  0  0  0  0  0  0  0  0  0
    4.0777    4.2352   -0.3925 S   0  0  0  0  0  0  0  0  0  0  0  0
    5.1621    1.7435   -1.1072 C   0  0  0  0  0  0  0  0  0  0  0  0
    5.4990    0.7444   -1.9722 C   0  0  0  0  0  0  0  0  0  0  0  0
    6.2054   -0.3217   -1.3681 C   0  0  0  0  0  0  0  0  0  0  0  0
    6.6361   -1.5153   -1.9709 C   0  0  0  0  0  0  0  0  0  0  0  0
    6.4071   -1.7738   -3.3839 C   0  0  0  0  0  0  0  0  0  0  0  0
    4.8233   -1.6373   -4.0929 S   0  0  0  0  0  0  0  0  0  0  0  0
    5.3941   -2.0798   -5.6620 C   0  0  0  0  0  0  0  0  0  0  0  0
    4.4761   -2.0980   -6.8340 C   0  0  0  0  0  0  0  0  0  0  0  0
    4.3194   -0.6951   -7.4263 C   0  0  0  0  0  0  0  0  0  0  0  0
    6.7358   -2.3152   -5.6269 C   0  0  0  0  0  0  0  0  0  0  0  0
    7.6643   -2.7703   -6.9969 Cl  0  0  0  0  0  0  0  0  0  0  0  0
    7.3115   -2.1503   -4.3385 C   0  0  0  0  0  0  0  0  0  0  0  0
    8.9937   -2.3212   -4.0582 Cl  0  0  0  0  0  0  0  0  0  0  0  0
    7.2533   -2.4452   -1.1420 C   0  0  0  0  0  0  0  0  0  0  0  0
    7.4704   -2.2186    0.2386 C   0  0  0  0  0  0  0  0  0  0  0  0
    7.0848   -1.0022    0.8261 C   0  0  0  0  0  0  0  0  0  0  0  0
    7.3413   -0.7400    2.2337 C   0  0  0  0  0  0  0  0  0  0  0  0
    6.0707   -0.2741    3.3250 S   0  0  0  0  0  0  0  0  0  0  0  0
    7.1507   -0.1853    4.6734 C   0  0  0  0  0  0  0  0  0  0  0  0
    6.6621    0.2261    6.0176 C   0  0  0  0  0  0  0  0  0  0  0  0
    6.4225    1.7361    6.0749 C   0  0  0  0  0  0  0  0  0  0  0  0
    8.4198   -0.4934    4.2836 C   0  0  0  0  0  0  0  0  0  0  0  0
    8.5304   -0.8155    2.9035 C   0  0  0  0  0  0  0  0  0  0  0  0
   10.0319   -1.1925    2.1607 Cl  0  0  0  0  0  0  0  0  0  0  0  0
    9.7701   -0.5244    5.3448 Cl  0  0  0  0  0  0  0  0  0  0  0  0
    6.4374   -0.0856    0.0082 C   0  0  0  0  0  0  0  0  0  0  0  0
    5.8011    1.4631    0.4992 S   0  0  0  0  0  0  0  0  0  0  0  0
    8.0266   -3.3658    0.8759 C   0  0  0  0  0  0  0  0  0  0  0  0
    8.2277   -4.3919    0.0241 C   0  0  0  0  0  0  0  0  0  0  0  0
    7.7611   -4.0444   -1.6031 S   0  0  0  0  0  0  0  0  0  0  0  0
    4.5934   -9.0460   11.1236 H   0  0  0  0  0  0  0  0  0  0  0  0
    5.2934   -7.2984    9.3230 H   0  0  0  0  0  0  0  0  0  0  0  0
    6.6657   -3.4567    4.1604 H   0  0  0  0  0  0  0  0  0  0  0  0
    7.5020   -2.7744    5.5669 H   0  0  0  0  0  0  0  0  0  0  0  0
    8.0203   -5.5330    4.3504 H   0  0  0  0  0  0  0  0  0  0  0  0
    8.8299   -4.8858    5.7819 H   0  0  0  0  0  0  0  0  0  0  0  0
    9.0735   -4.1172    4.2145 H   0  0  0  0  0  0  0  0  0  0  0  0
   -4.2120   -9.5017    9.4235 H   0  0  0  0  0  0  0  0  0  0  0  0
   -4.0543  -11.2593    9.2414 H   0  0  0  0  0  0  0  0  0  0  0  0
   -4.2469  -11.0087    6.7631 H   0  0  0  0  0  0  0  0  0  0  0  0
   -5.6560  -10.3235    7.5788 H   0  0  0  0  0  0  0  0  0  0  0  0
   -4.3953   -9.2579    6.9489 H   0  0  0  0  0  0  0  0  0  0  0  0
   -0.8755   -7.9285    5.7289 H   0  0  0  0  0  0  0  0  0  0  0  0
    0.9476   -4.5736    2.8310 H   0  0  0  0  0  0  0  0  0  0  0  0
    2.9258    0.6837    0.8405 H   0  0  0  0  0  0  0  0  0  0  0  0
    3.9444   -0.5704    1.5407 H   0  0  0  0  0  0  0  0  0  0  0  0
    2.5949   -0.5301    3.6295 H   0  0  0  0  0  0  0  0  0  0  0  0
    1.5534    0.7182    2.9408 H   0  0  0  0  0  0  0  0  0  0  0  0
    3.2573    1.0641    3.2604 H   0  0  0  0  0  0  0  0  0  0  0  0
   -7.9043   -8.1789   -0.1385 H   0  0  0  0  0  0  0  0  0  0  0  0
   -8.5405   -8.2873    1.5148 H   0  0  0  0  0  0  0  0  0  0  0  0
   -6.9025  -10.0971    2.0222 H   0  0  0  0  0  0  0  0  0  0  0  0
   -6.2623   -9.9855    0.3796 H   0  0  0  0  0  0  0  0  0  0  0  0
   -7.9205  -10.5355    0.6465 H   0  0  0  0  0  0  0  0  0  0  0  0
   -5.3348   -4.1779   -0.5504 H   0  0  0  0  0  0  0  0  0  0  0  0
   -6.2408   -1.2537   -1.2794 H   0  0  0  0  0  0  0  0  0  0  0  0
  -11.5743    2.4993   -1.1927 H   0  0  0  0  0  0  0  0  0  0  0  0
  -11.2152    2.2501    0.5270 H   0  0  0  0  0  0  0  0  0  0  0  0
  -11.4659   -0.2117    0.2181 H   0  0  0  0  0  0  0  0  0  0  0  0
  -11.8181    0.0346   -1.4955 H   0  0  0  0  0  0  0  0  0  0  0  0
  -12.9361    0.6385   -0.2670 H   0  0  0  0  0  0  0  0  0  0  0  0
   -0.7214   -0.4701   -9.5296 H   0  0  0  0  0  0  0  0  0  0  0  0
   -0.1838   -1.2391   -8.0184 H   0  0  0  0  0  0  0  0  0  0  0  0
   -2.5524   -2.1524   -9.7198 H   0  0  0  0  0  0  0  0  0  0  0  0
   -0.9736   -2.9409   -9.6435 H   0  0  0  0  0  0  0  0  0  0  0  0
   -2.0162   -2.9104   -8.2168 H   0  0  0  0  0  0  0  0  0  0  0  0
   -3.7808    3.5618   -5.7630 H   0  0  0  0  0  0  0  0  0  0  0  0
   -7.7280    6.1641   -4.4170 H   0  0  0  0  0  0  0  0  0  0  0  0
   -9.5565    9.0744   -4.9653 H   0  0  0  0  0  0  0  0  0  0  0  0
   -9.6989    7.4713   -4.2173 H   0  0  0  0  0  0  0  0  0  0  0  0
   -9.4786    8.9222   -3.2204 H   0  0  0  0  0  0  0  0  0  0  0  0
   -7.6696   12.6004   -3.8464 H   0  0  0  0  0  0  0  0  0  0  0  0
   -6.3274   12.0185   -4.8618 H   0  0  0  0  0  0  0  0  0  0  0  0
   -6.2468   11.8473   -3.0847 H   0  0  0  0  0  0  0  0  0  0  0  0
   -4.9353   10.2694   -4.1909 H   0  0  0  0  0  0  0  0  0  0  0  0
   -2.8756    9.8334   -4.3337 H   0  0  0  0  0  0  0  0  0  0  0  0
   -0.7293    9.6610   -3.6200 H   0  0  0  0  0  0  0  0  0  0  0  0
    0.6379    8.4655   -1.8311 H   0  0  0  0  0  0  0  0  0  0  0  0
    3.9975    9.3740    3.3644 H   0  0  0  0  0  0  0  0  0  0  0  0
    5.3738    8.6617    2.4998 H   0  0  0  0  0  0  0  0  0  0  0  0
    5.1810   10.4294    0.7477 H   0  0  0  0  0  0  0  0  0  0  0  0
    5.4296   11.1391    2.3471 H   0  0  0  0  0  0  0  0  0  0  0  0
    3.8203   11.1442    1.6191 H   0  0  0  0  0  0  0  0  0  0  0  0
    1.3510    0.6299   -8.2180 H   0  0  0  0  0  0  0  0  0  0  0  0
    0.1992    1.9237   -8.5690 H   0  0  0  0  0  0  0  0  0  0  0  0
    3.2384    2.2520   -8.5273 H   0  0  0  0  0  0  0  0  0  0  0  0
    2.0729    3.5300   -8.8811 H   0  0  0  0  0  0  0  0  0  0  0  0
    2.2308    2.1525   -9.9744 H   0  0  0  0  0  0  0  0  0  0  0  0
    3.4373    2.0817   -3.2377 H   0  0  0  0  0  0  0  0  0  0  0  0
    5.2344    0.7580   -3.0121 H   0  0  0  0  0  0  0  0  0  0  0  0
    4.8841   -2.7723   -7.5890 H   0  0  0  0  0  0  0  0  0  0  0  0
    3.4975   -2.4672   -6.5224 H   0  0  0  0  0  0  0  0  0  0  0  0
    3.6721   -0.7303   -8.2983 H   0  0  0  0  0  0  0  0  0  0  0  0
    3.8795   -0.0244   -6.6920 H   0  0  0  0  0  0  0  0  0  0  0  0
    5.2876   -0.3019   -7.7263 H   0  0  0  0  0  0  0  0  0  0  0  0
    5.7304   -0.2975    6.2411 H   0  0  0  0  0  0  0  0  0  0  0  0
    7.4072   -0.0574    6.7627 H   0  0  0  0  0  0  0  0  0  0  0  0
    5.6820    2.0291    5.3343 H   0  0  0  0  0  0  0  0  0  0  0  0
    6.0631    2.0191    7.0604 H   0  0  0  0  0  0  0  0  0  0  0  0
    7.3461    2.2729    5.8735 H   0  0  0  0  0  0  0  0  0  0  0  0
    8.2450   -3.4131    1.9262 H   0  0  0  0  0  0  0  0  0  0  0  0
    8.6302   -5.3611    0.2456 H   0  0  0  0  0  0  0  0  0  0  0  0
  1  2  2  0  0  0  0
  2  3  1  0  0  0  0
  3  4  2  0  0  0  0
  4  5  1  0  0  0  0
  5  6  1  0  0  0  0
  6  7  1  0  0  0  0
  7  8  1  0  0  0  0
  8  9  1  0  0  0  0
  7 10  2  0  0  0  0
 10 11  1  0  0  0  0
 10 12  1  0  0  0  0
 12 13  1  0  0  0  0
  4 14  1  0  0  0  0
 14 15  2  0  0  0  0
 15 16  1  0  0  0  0
 16 17  1  0  0  0  0
 17 18  1  0  0  0  0
 18 19  1  0  0  0  0
 19 20  1  0  0  0  0
 20 21  1  0  0  0  0
 19 22  2  0  0  0  0
 22 23  1  0  0  0  0
 23 24  1  0  0  0  0
 22 25  1  0  0  0  0
 16 26  2  0  0  0  0
 26 27  1  0  0  0  0
 15 28  1  0  0  0  0
 28 29  2  0  0  0  0
 29 30  1  0  0  0  0
 29 31  1  0  0  0  0
 31 32  2  0  0  0  0
 32 33  1  0  0  0  0
 33 34  2  0  0  0  0
 34 35  1  0  0  0  0
 35 36  1  0  0  0  0
 36 37  1  0  0  0  0
 37 38  1  0  0  0  0
 38 39  1  0  0  0  0
 37 40  2  0  0  0  0
 40 41  1  0  0  0  0
 40 42  1  0  0  0  0
 42 43  1  0  0  0  0
 34 44  1  0  0  0  0
 44 45  2  0  0  0  0
 45 46  1  0  0  0  0
 46 47  1  0  0  0  0
 47 48  1  0  0  0  0
 48 49  1  0  0  0  0
 49 50  1  0  0  0  0
 50 51  1  0  0  0  0
 49 52  2  0  0  0  0
 52 53  1  0  0  0  0
 53 54  1  0  0  0  0
 52 55  1  0  0  0  0
 46 56  2  0  0  0  0
 56 57  1  0  0  0  0
 45 58  1  0  0  0  0
 58 59  2  0  0  0  0
 59 60  1  0  0  0  0
 59 61  1  0  0  0  0
 61 62  2  0  0  0  0
 62 63  1  0  0  0  0
 63 64  2  0  0  0  0
 64 65  1  0  0  0  0
 65 66  1  0  0  0  0
 66 67  1  0  0  0  0
 67 68  1  0  0  0  0
 68 69  1  0  0  0  0
 67 70  2  0  0  0  0
 70 71  1  0  0  0  0
 70 72  1  0  0  0  0
 72 73  1  0  0  0  0
 64 74  1  0  0  0  0
 74 75  2  0  0  0  0
 75 76  1  0  0  0  0
 76 77  1  0  0  0  0
 77 78  1  0  0  0  0
 78 79  1  0  0  0  0
 79 80  1  0  0  0  0
 80 81  1  0  0  0  0
 79 82  2  0  0  0  0
 82 83  1  0  0  0  0
 83 84  1  0  0  0  0
 82 85  1  0  0  0  0
 76 86  2  0  0  0  0
 86 87  1  0  0  0  0
 75 88  1  0  0  0  0
 88 89  2  0  0  0  0
 89 90  1  0  0  0  0
 89 91  1  0  0  0  0
 91 92  1  0  0  0  0
 92 93  1  0  0  0  0
 93 94  2  0  0  0  0
 94 95  1  0  0  0  0
 95 96  1  0  0  0  0
 96 97  2  0  0  0  0
 97 98  1  0  0  0  0
 97 99  1  0  0  0  0
 99100  1  0  0  0  0
100101  1  0  0  0  0
 99102  2  0  0  0  0
 93103  1  0  0  0  0
103104  2  0  0  0  0
104105  1  0  0  0  0
105106  2  0  0  0  0
106107  1  0  0  0  0
107108  2  0  0  0  0
108109  1  0  0  0  0
109110  1  0  0  0  0
110111  1  0  0  0  0
111112  1  0  0  0  0
112113  1  0  0  0  0
111114  2  0  0  0  0
114115  1  0  0  0  0
114116  1  0  0  0  0
116117  1  0  0  0  0
108118  1  0  0  0  0
118119  2  0  0  0  0
119120  1  0  0  0  0
120121  1  0  0  0  0
121122  1  0  0  0  0
122123  1  0  0  0  0
123124  1  0  0  0  0
124125  1  0  0  0  0
123126  2  0  0  0  0
126127  1  0  0  0  0
127128  1  0  0  0  0
126129  1  0  0  0  0
120130  2  0  0  0  0
130131  1  0  0  0  0
119132  1  0  0  0  0
132133  2  0  0  0  0
133134  1  0  0  0  0
133135  1  0  0  0  0
135136  2  0  0  0  0
136137  1  0  0  0  0
137138  2  0  0  0  0
138139  1  0  0  0  0
139140  1  0  0  0  0
140141  1  0  0  0  0
141142  1  0  0  0  0
142143  1  0  0  0  0
141144  2  0  0  0  0
144145  1  0  0  0  0
144146  1  0  0  0  0
146147  1  0  0  0  0
138148  1  0  0  0  0
148149  2  0  0  0  0
149150  1  0  0  0  0
150151  1  0  0  0  0
151152  1  0  0  0  0
152153  1  0  0  0  0
153154  1  0  0  0  0
154155  1  0  0  0  0
153156  2  0  0  0  0
156157  1  0  0  0  0
157158  1  0  0  0  0
156159  1  0  0  0  0
150160  2  0  0  0  0
160161  1  0  0  0  0
149162  1  0  0  0  0
162163  2  0  0  0  0
163164  1  0  0  0  0
 27  1  1  0  0  0  0
 57 31  1  0  0  0  0
 87 61  1  0  0  0  0
 95 91  2  0  0  0  0
131105  1  0  0  0  0
161135  1  0  0  0  0
 26  3  1  0  0  0  0
 56 33  1  0  0  0  0
 86 63  1  0  0  0  0
102 94  1  0  0  0  0
130107  1  0  0  0  0
160137  1  0  0  0  0
 12  5  2  0  0  0  0
 30 14  1  0  0  0  0
 42 35  2  0  0  0  0
 60 44  1  0  0  0  0
 72 65  2  0  0  0  0
 90 74  1  0  0  0  0
116109  2  0  0  0  0
134118  1  0  0  0  0
146139  2  0  0  0  0
164148  1  0  0  0  0
 23 17  2  0  0  0  0
 53 47  2  0  0  0  0
 83 77  2  0  0  0  0
127121  2  0  0  0  0
157151  2  0  0  0  0
  1165  1  0  0  0  0
  2166  1  0  0  0  0
  8167  1  0  0  0  0
  8168  1  0  0  0  0
  9169  1  0  0  0  0
  9170  1  0  0  0  0
  9171  1  0  0  0  0
 20172  1  0  0  0  0
 20173  1  0  0  0  0
 21174  1  0  0  0  0
 21175  1  0  0  0  0
 21176  1  0  0  0  0
 28177  1  0  0  0  0
 32178  1  0  0  0  0
 38179  1  0  0  0  0
 38180  1  0  0  0  0
 39181  1  0  0  0  0
 39182  1  0  0  0  0
 39183  1  0  0  0  0
 50184  1  0  0  0  0
 50185  1  0  0  0  0
 51186  1  0  0  0  0
 51187  1  0  0  0  0
 51188  1  0  0  0  0
 58189  1  0  0  0  0
 62190  1  0  0  0  0
 68191  1  0  0  0  0
 68192  1  0  0  0  0
 69193  1  0  0  0  0
 69194  1  0  0  0  0
 69195  1  0  0  0  0
 80196  1  0  0  0  0
 80197  1  0  0  0  0
 81198  1  0  0  0  0
 81199  1  0  0  0  0
 81200  1  0  0  0  0
 88201  1  0  0  0  0
 96202  1  0  0  0  0
 98203  1  0  0  0  0
 98204  1  0  0  0  0
 98205  1  0  0  0  0
101206  1  0  0  0  0
101207  1  0  0  0  0
101208  1  0  0  0  0
102209  1  0  0  0  0
103210  1  0  0  0  0
104211  1  0  0  0  0
106212  1  0  0  0  0
112213  1  0  0  0  0
112214  1  0  0  0  0
113215  1  0  0  0  0
113216  1  0  0  0  0
113217  1  0  0  0  0
124218  1  0  0  0  0
124219  1  0  0  0  0
125220  1  0  0  0  0
125221  1  0  0  0  0
125222  1  0  0  0  0
132223  1  0  0  0  0
136224  1  0  0  0  0
142225  1  0  0  0  0
142226  1  0  0  0  0
143227  1  0  0  0  0
143228  1  0  0  0  0
143229  1  0  0  0  0
154230  1  0  0  0  0
154231  1  0  0  0  0
155232  1  0  0  0  0
155233  1  0  0  0  0
155234  1  0  0  0  0
162235  1  0  0  0  0
163236  1  0  0  0  0
M  END
