142

C         -6.62720        8.89420        7.60110
S         -7.78740        7.67170        7.35120
C         -6.59600        6.53110        6.78510
C         -5.33060        7.13260        6.76430
C         -5.36100        8.48210        7.24990
C         -4.16400        9.23590        7.31390
C         -2.98450        8.69910        6.90150
C         -1.69670        9.45640        6.95640
C         -2.96450        7.36730        6.37230
O         -1.73430        6.94670        5.96260
C         -1.60090        5.64300        5.45470
C         -4.10480        6.61290        6.29610
C         -7.05540        5.22980        6.46020
C         -6.27720        4.12550        6.32000
C         -6.64430        2.80770        5.96110
S         -5.33670        1.65940        5.97110
C         -6.33910        0.34390        5.46790
C         -7.65750        0.78560        5.30030
C         -7.83440        2.18090        5.56120
C         -9.11760        2.73830        5.38270
C        -10.17670        1.97060        4.99460
C        -11.54390        2.54610        4.80500
C         -9.99160        0.57450        4.75500
O        -11.12200       -0.08900        4.37950
C        -11.03730       -1.46880        4.13090
C         -8.75740        0.00020        4.89470
C         -5.86110       -0.99580        5.35990
C         -4.58350       -1.41590        5.34570
C         -3.39870       -0.55930        5.28290
C         -2.39170       -0.69580        6.24750
C         -1.26920        0.10420        6.24340
C         -1.13300        1.04970        5.23470
C         -2.12750        1.15630        4.24080
C         -3.25850        0.36710        4.25040
O         -1.81880        2.11570        3.32270
C         -0.62550        2.64450        3.71050
C         -0.14850        2.03690        4.89140
C          1.04500        2.47280        5.45220
C          1.72830        3.49490        4.82890
C          1.26920        4.07520        3.63730
C          0.06750        3.65160        3.07130
C          2.03810        5.16870        3.04610
C          2.30920        5.38070        1.75410
C          2.03320        4.51310        0.61570
C          1.86790        5.10420       -0.64780
C          1.65680        4.35690       -1.78550
C          1.61980        2.97260       -1.66970
C          1.78960        2.37910       -0.40100
C          2.00470        3.12420        0.73900
O          1.73510        1.01990       -0.47270
C          1.54040        0.71560       -1.78580
C          1.46510        1.87680       -2.58310
C          1.28870        1.75310       -3.95650
C          1.20950        0.49050       -4.50080
C          1.28280       -0.66600       -3.70730
C          1.43110       -0.54900       -2.32410
C          1.21670       -1.99550       -4.28930
C          1.61240       -2.31460       -5.52820
C          1.59830       -3.65350       -6.09180
C          0.67730       -4.62430       -5.66620
C          0.67260       -5.90060       -6.18410
C          1.62210       -6.23450       -7.14290
C          2.54650       -5.25910       -7.57160
C          2.53550       -3.97270       -7.07620
O          3.41020       -5.75860       -8.49870
C          3.06490       -7.06380       -8.67520
C          1.95710       -7.42140       -7.87780
C          1.45170       -8.71360       -7.94870
C          2.06850       -9.61560       -8.78970
C          3.19790       -9.26910       -9.54390
C          3.69470       -7.96800       -9.50400
C          3.84130      -10.27870      -10.38600
C          5.15630      -10.49290      -10.47540
C          6.19070       -9.84960       -9.66750
C          7.42010       -9.52660      -10.26030
C          8.43290       -8.91480       -9.55300
C          8.22460       -8.63090       -8.20900
C          6.99730       -8.98180       -7.60840
C          5.98110       -9.59050       -8.31400
O          6.97010       -8.64720       -6.28880
C          8.17430       -8.07000       -6.01760
C          9.00010       -8.03070       -7.16040
C         10.27220       -7.48090       -7.06160
C         10.68110       -6.98940       -5.84130
C          9.85710       -7.02040       -4.70410
C          8.58030       -7.57470       -4.79650
C         10.37680       -6.46830       -3.45950
C          9.70560       -6.29010       -2.32740
H         -6.92660        9.84620        7.99150
H         -4.20600       10.24640        7.69270
H         -0.98200        8.93030        7.58760
H         -1.26070        9.52310        5.96100
H         -1.85270       10.45750        7.34900
H         -2.18270        5.50320        4.53810
H         -0.54350        5.51840        5.22730
H         -1.90060        4.88990        6.19090
H         -4.08040        5.63460        5.85110
H         -8.12810        5.14420        6.37430
H         -5.22280        4.22140        6.53570
H         -9.27250        3.79160        5.54480
H        -11.88530        2.37140        3.78590
H        -12.25130        2.05460        5.47140
H        -11.54670        3.61410        5.00560
H        -10.35880       -1.68750        3.29950
H        -10.70970       -2.01820        5.01990
H        -12.04510       -1.78410        3.86460
H         -8.60140       -1.04750        4.69690
H         -6.63930       -1.74860        5.33930
H         -4.38930       -2.47960        5.39120
H         -2.52030       -1.43410        7.02560
H         -0.51040        0.00030        7.00400
H         -4.01090        0.46300        3.48380
H          1.42150        2.02510        6.35910
H          2.65660        3.85170        5.25130
H         -0.31100        4.10300        2.16860
H          2.41460        5.88650        3.76600
H          2.82290        6.29890        1.49410
H          1.90360        6.18180       -0.72040
H          1.53280        4.83060       -2.74740
H          2.16620        2.64160        1.68850
H          1.21940        2.63150       -4.58000
H          1.06440        0.38160       -5.56460
H          1.48720       -1.42330       -1.69470
H          0.87980       -2.77620       -3.62000
H          2.04600       -1.55190       -6.16170
H         -0.06050       -4.35090       -4.92740
H         -0.04950       -6.63110       -5.85220
H          3.25090       -3.24260       -7.42130
H          0.59580       -9.00140       -7.35740
H          1.69500      -10.62750       -8.85460
H          4.54440       -7.67770      -10.10040
H          3.16880      -10.88430      -10.98090
H          5.51990      -11.21350      -11.19770
H          7.56280       -9.75190      -11.30750
H          9.36910       -8.66380      -10.02790
H          5.05970       -9.86500       -7.82750
H         10.92240       -7.44350       -7.92230
H         11.66830       -6.55940       -5.74990
H          7.92180       -7.62790       -3.94580
H         11.41820       -6.17290       -3.50020
H          8.66610       -6.54660       -2.21850
H         10.17970       -5.86860       -1.45780
