141

C          8.57690        4.17210       -0.99280
S          7.29060        3.27720       -0.29250
C          6.11110        4.33680       -1.02230
C          6.72920        5.32670       -1.75810
C          8.14060        5.22340       -1.74150
C          9.02520        6.18710       -2.47030
C          8.24380        6.88150       -3.58250
C          6.95460        7.48310       -3.00740
C          6.30330        8.36620       -4.03730
O          5.19600        8.23700       -4.47510
C          6.00660        6.37940       -2.53840
C          4.71310        4.12990       -0.85220
C          4.16300        3.08740       -0.19580
C          2.76300        2.87060       -0.07000
S          1.59500        3.99200       -0.71530
C          0.26490        2.98460       -0.20760
C          0.72450        1.83200        0.40020
C          2.13100        1.78330        0.50060
C          2.86420        0.64840        1.14590
C          1.90270       -0.36800        1.75810
C          0.71770       -0.60750        0.81310
C         -0.09290       -1.76910        1.30640
O         -0.22760       -2.81470        0.73570
C         -0.13060        0.66860        0.79150
C         -1.06490        3.40540       -0.52860
C         -2.20190        3.18650        0.16260
C         -2.35490        2.69030        1.49830
S         -3.75160        1.70370        1.84830
C         -3.29980        1.55890        3.52300
C         -2.16130        2.29290        3.78140
C         -1.61490        2.92000        2.63970
C         -0.40930        3.79960        2.72860
C         -0.21170        4.28630        4.16050
C         -0.18670        3.08560        5.10250
C          0.24470        3.45060        6.49720
O          0.64030        4.52330        6.85320
C         -1.56780        2.41970        5.15290
C         -4.11820        0.89170        4.49300
C         -4.89600       -0.20210        4.32980
C         -4.92980       -1.11960        3.24270
S         -3.59090       -1.39100        2.18210
C         -4.40420       -2.64350        1.29350
C         -5.66880       -2.88540        1.85030
C         -5.95920       -2.02430        2.95150
C         -7.20480       -2.13220        3.60410
C         -8.11690       -3.07090        3.22190
C         -9.44360       -3.21360        3.89580
C         -7.79930       -3.96530        2.15340
O         -8.77020       -4.88370        1.88140
C         -8.55620       -5.79840        0.83740
C         -6.60600       -3.87430        1.48690
C         -3.71910       -3.16860        0.17290
C         -4.23630       -3.86210       -0.87180
C         -3.45930       -4.30220       -1.97460
S         -1.75900       -3.95150       -2.08370
C         -1.63620       -4.76750       -3.61440
C         -2.86770       -5.26080       -4.01180
C         -3.89020       -5.01990       -3.07960
C         -5.30370       -5.47270       -3.28900
C         -5.40000       -6.50050       -4.41440
C         -4.58140       -6.06380       -5.64020
C         -5.06970       -4.71400       -6.09890
O         -5.98070       -4.53680       -6.85780
C         -3.09640       -6.02510       -5.27920
C         -0.42850       -4.77470       -4.38090
C          0.83720       -4.63140       -3.94280
C          1.31690       -4.66530       -2.58750
S          0.70450       -5.78220       -1.40560
C          1.86780       -5.25930       -0.22850
C          2.69080       -4.28440       -0.74920
C          2.38180       -3.95280       -2.08360
C          3.12400       -2.90020       -2.84860
C          3.86780       -1.97710       -1.89010
C          4.70470       -2.80570       -0.91940
C          5.60630       -1.95730       -0.06800
O          5.60470       -0.75860       -0.02630
C          3.79100       -3.61380        0.01800
C          1.88960       -5.81370        1.09520
C          1.04850       -6.74240        1.54360
H          9.58930        3.86910       -0.81190
H          9.89000        5.66320       -2.88260
H          9.40060        6.93630       -1.76530
H          8.85700        7.66250       -4.03690
H          7.98350        6.15730       -4.35710
H          7.23020        8.12700       -2.16260
H          6.96490        9.18520       -4.38820
H          5.53600        5.92540       -3.41700
H          5.20450        6.81610       -1.93900
H          4.06470        4.86740       -1.30790
H          4.80510        2.33410        0.24100
H          3.50220        0.16580        0.40110
H          3.53090        1.03440        1.92200
H          1.51840        0.00260        2.71160
H          2.43280       -1.30210        1.95670
H          1.08440       -0.83600       -0.19270
H         -0.57430       -1.58730        2.28900
H         -0.96270        0.57200        0.09000
H         -0.56240        0.82200        1.78570
H         -1.14680        3.95330       -1.45980
H         -3.13660        3.42650       -0.33040
H          0.47880        3.24010        2.41630
H         -0.51520        4.64120        2.04110
H         -1.02620        4.95280        4.44970
H          0.72280        4.84210        4.24480
H          0.54330        2.35330        4.73190
H          0.16110        2.60570        7.21290
H         -1.50020        1.43620        5.62570
H         -2.23790        3.03240        5.76750
H         -4.13210        1.37120        5.46510
H         -5.56080       -0.45750        5.14600
H         -7.43610       -1.46240        4.41850
H         -9.54300       -4.21280        4.31710
H         -9.55770       -2.47770        4.68710
H        -10.24580       -3.08780        3.17040
H         -7.68820       -6.43730        1.03200
H         -9.45330       -6.41430        0.79570
H         -8.42360       -5.28830       -0.12280
H         -6.35450       -4.56870        0.70510
H         -2.66100       -2.93580        0.13640
H         -5.29340       -4.06930       -0.93030
H         -5.92780       -4.60480       -3.52930
H         -5.69510       -5.91020       -2.36680
H         -5.01030       -7.46080       -4.06950
H         -6.44420       -6.63770       -4.70000
H         -4.75820       -6.78170       -6.44790
H         -4.51430       -3.86070       -5.66200
H         -2.73090       -7.04930       -5.15400
H         -2.52680       -5.57910       -6.09870
H         -0.57630       -4.85350       -5.45180
H          1.61540       -4.50700       -4.68730
H          3.83850       -3.38150       -3.52630
H          2.42770       -2.32470       -3.46160
H          4.51100       -1.29010       -2.44270
H          3.14920       -1.38100       -1.32530
H          5.33370       -3.50670       -1.48110
H          6.28870       -2.54840        0.57640
H          4.38060       -4.35550        0.56290
H          3.34510       -2.93830        0.75610
H          2.65430       -5.41650        1.75060
H          0.27400       -7.14610        0.91340
H          1.10580       -7.12060        2.54890
