
  xtb     03022214263D
 energy: -461.659397312369 gnorm: 0.000504742127 xtb: 6.4.1 (unknown)
236262  0     0  0            999 V2000
    3.6143   -4.4978    6.6084 C   0  0  0  0  0  0  0  0  0  0  0  0
    3.1170   -3.2451    6.6498 C   0  0  0  0  0  0  0  0  0  0  0  0
    2.2750   -2.9445    5.5396 C   0  0  0  0  0  0  0  0  0  0  0  0
    1.5678   -1.7576    5.2775 C   0  0  0  0  0  0  0  0  0  0  0  0
    1.7759   -0.5691    6.0859 C   0  0  0  0  0  0  0  0  0  0  0  0
    3.3947   -0.0064    6.3869 S   0  0  0  0  0  0  0  0  0  0  0  0
    2.8363    1.3941    7.2382 C   0  0  0  0  0  0  0  0  0  0  0  0
    3.7872    2.3855    7.8174 C   0  0  0  0  0  0  0  0  0  0  0  0
    4.9630    2.6644    6.8855 C   0  0  0  0  0  0  0  0  0  0  0  0
    1.4741    1.4017    7.2864 C   0  0  0  0  0  0  0  0  0  0  0  0
    0.5491    2.6207    8.0649 Cl  0  0  0  0  0  0  0  0  0  0  0  0
    0.8691    0.2953    6.6323 C   0  0  0  0  0  0  0  0  0  0  0  0
   -0.8275    0.0605    6.6246 Cl  0  0  0  0  0  0  0  0  0  0  0  0
    0.7393   -1.7516    4.1597 C   0  0  0  0  0  0  0  0  0  0  0  0
    0.6347   -2.8603    3.2833 C   0  0  0  0  0  0  0  0  0  0  0  0
    1.3345   -4.0476    3.5513 C   0  0  0  0  0  0  0  0  0  0  0  0
    1.1778   -5.2166    2.7073 C   0  0  0  0  0  0  0  0  0  0  0  0
    2.5488   -6.0772    2.0761 S   0  0  0  0  0  0  0  0  0  0  0  0
    1.5461   -7.2102    1.2368 C   0  0  0  0  0  0  0  0  0  0  0  0
    2.1286   -8.3196    0.4354 C   0  0  0  0  0  0  0  0  0  0  0  0
    2.4435   -9.5264    1.3203 C   0  0  0  0  0  0  0  0  0  0  0  0
    0.2297   -6.9416    1.4658 C   0  0  0  0  0  0  0  0  0  0  0  0
    0.0150   -5.8108    2.2970 C   0  0  0  0  0  0  0  0  0  0  0  0
   -1.5528   -5.3132    2.7855 Cl  0  0  0  0  0  0  0  0  0  0  0  0
   -1.0616   -7.8562    0.8043 Cl  0  0  0  0  0  0  0  0  0  0  0  0
    2.1539   -4.0535    4.6719 C   0  0  0  0  0  0  0  0  0  0  0  0
    3.1068   -5.4021    5.2250 S   0  0  0  0  0  0  0  0  0  0  0  0
   -0.1665   -2.5670    2.1551 C   0  0  0  0  0  0  0  0  0  0  0  0
   -0.6862   -1.3087    2.1627 C   0  0  0  0  0  0  0  0  0  0  0  0
   -0.2198   -0.4133    3.5901 S   0  0  0  0  0  0  0  0  0  0  0  0
   -1.5226   -0.7372    1.1613 C   0  0  0  0  0  0  0  0  0  0  0  0
   -2.1722    0.4610    1.1605 C   0  0  0  0  0  0  0  0  0  0  0  0
   -2.9466    0.6877   -0.0060 C   0  0  0  0  0  0  0  0  0  0  0  0
   -3.7924    1.7782   -0.3029 C   0  0  0  0  0  0  0  0  0  0  0  0
   -3.9145    2.9066    0.6038 C   0  0  0  0  0  0  0  0  0  0  0  0
   -2.5059    3.6678    1.2953 S   0  0  0  0  0  0  0  0  0  0  0  0
   -3.4415    4.8555    2.1291 C   0  0  0  0  0  0  0  0  0  0  0  0
   -2.8077    5.8648    3.0206 C   0  0  0  0  0  0  0  0  0  0  0  0
   -2.9719    5.4711    4.4903 C   0  0  0  0  0  0  0  0  0  0  0  0
   -4.7676    4.6502    1.8964 C   0  0  0  0  0  0  0  0  0  0  0  0
   -6.0107    5.6078    2.5846 Cl  0  0  0  0  0  0  0  0  0  0  0  0
   -5.0417    3.5532    1.0375 C   0  0  0  0  0  0  0  0  0  0  0  0
   -6.6490    3.0571    0.7152 Cl  0  0  0  0  0  0  0  0  0  0  0  0
   -4.4933    1.7159   -1.5037 C   0  0  0  0  0  0  0  0  0  0  0  0
   -4.3941    0.6242   -2.4042 C   0  0  0  0  0  0  0  0  0  0  0  0
   -3.5547   -0.4635   -2.1066 C   0  0  0  0  0  0  0  0  0  0  0  0
   -3.4250   -1.6052   -2.9945 C   0  0  0  0  0  0  0  0  0  0  0  0
   -1.8545   -2.2235   -3.4246 S   0  0  0  0  0  0  0  0  0  0  0  0
   -2.5257   -3.4887   -4.3934 C   0  0  0  0  0  0  0  0  0  0  0  0
   -1.6644   -4.5327   -5.0139 C   0  0  0  0  0  0  0  0  0  0  0  0
   -1.6344   -5.7841   -4.1329 C   0  0  0  0  0  0  0  0  0  0  0  0
   -3.8864   -3.4196   -4.3832 C   0  0  0  0  0  0  0  0  0  0  0  0
   -4.4001   -2.3621   -3.5863 C   0  0  0  0  0  0  0  0  0  0  0  0
   -6.0880   -2.1726   -3.3195 Cl  0  0  0  0  0  0  0  0  0  0  0  0
   -4.9033   -4.4971   -5.2512 Cl  0  0  0  0  0  0  0  0  0  0  0  0
   -2.8509   -0.3962   -0.9115 C   0  0  0  0  0  0  0  0  0  0  0  0
   -1.8212   -1.6565   -0.2981 S   0  0  0  0  0  0  0  0  0  0  0  0
   -5.1803    0.8073   -3.5621 C   0  0  0  0  0  0  0  0  0  0  0  0
   -5.8717    1.9852   -3.5928 C   0  0  0  0  0  0  0  0  0  0  0  0
   -5.5453    2.9416   -2.1535 S   0  0  0  0  0  0  0  0  0  0  0  0
   -6.7085    2.5301   -4.6036 C   0  0  0  0  0  0  0  0  0  0  0  0
   -7.3574    4.1180   -4.3411 S   0  0  0  0  0  0  0  0  0  0  0  0
   -7.9419    4.2497   -5.9587 C   0  0  0  0  0  0  0  0  0  0  0  0
   -7.7282    3.0682   -6.6539 C   0  0  0  0  0  0  0  0  0  0  0  0
   -7.0310    2.0768   -5.8883 C   0  0  0  0  0  0  0  0  0  0  0  0
   -6.7287    0.8504   -6.5193 C   0  0  0  0  0  0  0  0  0  0  0  0
   -7.0382    0.6338   -7.8292 C   0  0  0  0  0  0  0  0  0  0  0  0
   -6.7158   -0.6551   -8.5129 C   0  0  0  0  0  0  0  0  0  0  0  0
   -7.6883    1.6550   -8.5951 C   0  0  0  0  0  0  0  0  0  0  0  0
   -7.9163    1.3246   -9.8940 O   0  0  0  0  0  0  0  0  0  0  0  0
   -8.5275    2.2767  -10.7278 C   0  0  0  0  0  0  0  0  0  0  0  0
   -8.0404    2.8399   -8.0134 C   0  0  0  0  0  0  0  0  0  0  0  0
   -8.2778    5.5621   -6.5098 C   0  0  0  0  0  0  0  0  0  0  0  0
   -7.3312    6.5020   -6.5940 C   0  0  0  0  0  0  0  0  0  0  0  0
   -5.9808    6.1558   -6.1521 C   0  0  0  0  0  0  0  0  0  0  0  0
   -5.3651    6.4778   -4.9903 C   0  0  0  0  0  0  0  0  0  0  0  0
   -4.2847    5.6094   -4.6619 C   0  0  0  0  0  0  0  0  0  0  0  0
   -3.6013    5.5226   -3.4400 C   0  0  0  0  0  0  0  0  0  0  0  0
   -3.9178    6.3837   -2.3114 C   0  0  0  0  0  0  0  0  0  0  0  0
   -5.5640    6.5575   -1.7709 S   0  0  0  0  0  0  0  0  0  0  0  0
   -5.1112    7.5799   -0.4523 C   0  0  0  0  0  0  0  0  0  0  0  0
   -6.1384    8.2148    0.4176 C   0  0  0  0  0  0  0  0  0  0  0  0
   -6.6424    9.5189   -0.2053 C   0  0  0  0  0  0  0  0  0  0  0  0
   -3.7603    7.7567   -0.4372 C   0  0  0  0  0  0  0  0  0  0  0  0
   -2.9362    8.7200    0.7185 Cl  0  0  0  0  0  0  0  0  0  0  0  0
   -3.0791    7.0745   -1.4806 C   0  0  0  0  0  0  0  0  0  0  0  0
   -1.3851    7.2148   -1.7026 Cl  0  0  0  0  0  0  0  0  0  0  0  0
   -2.6967    4.4749   -3.3057 C   0  0  0  0  0  0  0  0  0  0  0  0
   -2.4976    3.4845   -4.2983 C   0  0  0  0  0  0  0  0  0  0  0  0
   -3.1889    3.5644   -5.5232 C   0  0  0  0  0  0  0  0  0  0  0  0
   -3.1163    2.4935   -6.4997 C   0  0  0  0  0  0  0  0  0  0  0  0
   -3.1753    0.8322   -5.9774 S   0  0  0  0  0  0  0  0  0  0  0  0
   -3.1573    0.2224   -7.5929 C   0  0  0  0  0  0  0  0  0  0  0  0
   -3.1070   -1.2432   -7.8483 C   0  0  0  0  0  0  0  0  0  0  0  0
   -1.7025   -1.7878   -7.5788 C   0  0  0  0  0  0  0  0  0  0  0  0
   -3.1011    1.2547   -8.4795 C   0  0  0  0  0  0  0  0  0  0  0  0
   -3.0749    2.5380   -7.8684 C   0  0  0  0  0  0  0  0  0  0  0  0
   -2.8737    3.9624   -8.7976 Cl  0  0  0  0  0  0  0  0  0  0  0  0
   -3.0732    1.0516  -10.1825 Cl  0  0  0  0  0  0  0  0  0  0  0  0
   -4.0494    4.6486   -5.6776 C   0  0  0  0  0  0  0  0  0  0  0  0
   -5.1418    4.8774   -7.0087 S   0  0  0  0  0  0  0  0  0  0  0  0
   -1.6174    2.4705   -3.8494 C   0  0  0  0  0  0  0  0  0  0  0  0
   -1.1816    2.6536   -2.5709 C   0  0  0  0  0  0  0  0  0  0  0  0
   -1.8003    4.1213   -1.8621 S   0  0  0  0  0  0  0  0  0  0  0  0
   -0.3121    1.8090   -1.8259 C   0  0  0  0  0  0  0  0  0  0  0  0
    0.1975    2.0198   -0.5803 C   0  0  0  0  0  0  0  0  0  0  0  0
    1.0556    0.9822   -0.1421 C   0  0  0  0  0  0  0  0  0  0  0  0
    1.8068    0.9188    1.0463 C   0  0  0  0  0  0  0  0  0  0  0  0
    1.9378    2.0978    1.8829 C   0  0  0  0  0  0  0  0  0  0  0  0
    1.7866    2.0673    3.6142 S   0  0  0  0  0  0  0  0  0  0  0  0
    2.0671    3.7680    3.7513 C   0  0  0  0  0  0  0  0  0  0  0  0
    1.9809    4.4667    5.0621 C   0  0  0  0  0  0  0  0  0  0  0  0
    0.5548    4.9562    5.3206 C   0  0  0  0  0  0  0  0  0  0  0  0
    2.2741    4.3156    2.5203 C   0  0  0  0  0  0  0  0  0  0  0  0
    2.5792    5.9832    2.2551 Cl  0  0  0  0  0  0  0  0  0  0  0  0
    2.2167    3.3733    1.4617 C   0  0  0  0  0  0  0  0  0  0  0  0
    2.5729    3.8140   -0.1588 Cl  0  0  0  0  0  0  0  0  0  0  0  0
    2.4743   -0.2744    1.2953 C   0  0  0  0  0  0  0  0  0  0  0  0
    2.4853   -1.3644    0.3858 C   0  0  0  0  0  0  0  0  0  0  0  0
    1.8196   -1.2537   -0.8506 C   0  0  0  0  0  0  0  0  0  0  0  0
    1.9065   -2.2714   -1.8857 C   0  0  0  0  0  0  0  0  0  0  0  0
    2.3951   -1.8218   -3.4956 S   0  0  0  0  0  0  0  0  0  0  0  0
    2.2985   -3.4508   -4.0734 C   0  0  0  0  0  0  0  0  0  0  0  0
    2.6309   -3.7992   -5.4834 C   0  0  0  0  0  0  0  0  0  0  0  0
    2.0518   -2.7927   -6.4735 C   0  0  0  0  0  0  0  0  0  0  0  0
    1.9079   -4.2808   -3.0665 C   0  0  0  0  0  0  0  0  0  0  0  0
    1.6739   -3.6160   -1.8331 C   0  0  0  0  0  0  0  0  0  0  0  0
    1.0595   -4.4550   -0.4719 Cl  0  0  0  0  0  0  0  0  0  0  0  0
    1.7379   -5.9813   -3.2268 Cl  0  0  0  0  0  0  0  0  0  0  0  0
    1.1261   -0.0738   -1.0810 C   0  0  0  0  0  0  0  0  0  0  0  0
    0.2220    0.2949   -2.5211 S   0  0  0  0  0  0  0  0  0  0  0  0
    3.3097   -2.4208    0.8433 C   0  0  0  0  0  0  0  0  0  0  0  0
    3.9093   -2.1686    2.0436 C   0  0  0  0  0  0  0  0  0  0  0  0
    3.4796   -0.5962    2.6781 S   0  0  0  0  0  0  0  0  0  0  0  0
    4.8290   -3.0045    2.7480 C   0  0  0  0  0  0  0  0  0  0  0  0
    5.3505   -4.1950    2.3326 C   0  0  0  0  0  0  0  0  0  0  0  0
    6.2545   -4.7706    3.2583 C   0  0  0  0  0  0  0  0  0  0  0  0
    7.0109   -5.9448    3.1147 C   0  0  0  0  0  0  0  0  0  0  0  0
    7.0307   -6.7209    1.8840 C   0  0  0  0  0  0  0  0  0  0  0  0
    5.6101   -7.4182    1.1718 S   0  0  0  0  0  0  0  0  0  0  0  0
    6.5097   -8.1193   -0.1322 C   0  0  0  0  0  0  0  0  0  0  0  0
    5.8610   -8.9754   -1.1634 C   0  0  0  0  0  0  0  0  0  0  0  0
    5.8312  -10.4379   -0.7138 C   0  0  0  0  0  0  0  0  0  0  0  0
    7.8340   -7.8241   -0.0043 C   0  0  0  0  0  0  0  0  0  0  0  0
    9.0407   -8.3438   -1.1071 Cl  0  0  0  0  0  0  0  0  0  0  0  0
    8.1326   -7.0296    1.1339 C   0  0  0  0  0  0  0  0  0  0  0  0
    9.7141   -6.4592    1.4676 Cl  0  0  0  0  0  0  0  0  0  0  0  0
    7.8119   -6.3136    4.1890 C   0  0  0  0  0  0  0  0  0  0  0  0
    7.9479   -5.5239    5.3535 C   0  0  0  0  0  0  0  0  0  0  0  0
    7.2787   -4.2929    5.4483 C   0  0  0  0  0  0  0  0  0  0  0  0
    7.5482   -3.4079    6.5702 C   0  0  0  0  0  0  0  0  0  0  0  0
    6.2998   -2.7789    7.5989 S   0  0  0  0  0  0  0  0  0  0  0  0
    7.4411   -1.9581    8.6114 C   0  0  0  0  0  0  0  0  0  0  0  0
    6.9866   -1.1674    9.7878 C   0  0  0  0  0  0  0  0  0  0  0  0
    6.2059    0.0725    9.3529 C   0  0  0  0  0  0  0  0  0  0  0  0
    8.7086   -2.1475    8.1493 C   0  0  0  0  0  0  0  0  0  0  0  0
    8.7737   -2.9740    6.9954 C   0  0  0  0  0  0  0  0  0  0  0  0
   10.2493   -3.3274    6.1929 Cl  0  0  0  0  0  0  0  0  0  0  0  0
   10.1109   -1.4799    8.8794 Cl  0  0  0  0  0  0  0  0  0  0  0  0
    6.4113   -3.9651    4.4149 C   0  0  0  0  0  0  0  0  0  0  0  0
    5.4538   -2.5157    4.3095 S   0  0  0  0  0  0  0  0  0  0  0  0
    8.7850   -6.1543    6.3198 C   0  0  0  0  0  0  0  0  0  0  0  0
    9.2567   -7.3473    5.9037 C   0  0  0  0  0  0  0  0  0  0  0  0
    8.7300   -7.7865    4.3172 S   0  0  0  0  0  0  0  0  0  0  0  0
    4.2658   -4.9699    7.3168 H   0  0  0  0  0  0  0  0  0  0  0  0
    3.3240   -2.5531    7.4438 H   0  0  0  0  0  0  0  0  0  0  0  0
    3.2398    3.3065    8.0291 H   0  0  0  0  0  0  0  0  0  0  0  0
    4.1683    2.0049    8.7692 H   0  0  0  0  0  0  0  0  0  0  0  0
    5.6344    3.3889    7.3384 H   0  0  0  0  0  0  0  0  0  0  0  0
    5.5146    1.7479    6.6922 H   0  0  0  0  0  0  0  0  0  0  0  0
    4.6153    3.0590    5.9342 H   0  0  0  0  0  0  0  0  0  0  0  0
    3.0453   -7.9701   -0.0416 H   0  0  0  0  0  0  0  0  0  0  0  0
    1.4123   -8.6054   -0.3372 H   0  0  0  0  0  0  0  0  0  0  0  0
    2.8282  -10.3426    0.7150 H   0  0  0  0  0  0  0  0  0  0  0  0
    1.5439   -9.8653    1.8276 H   0  0  0  0  0  0  0  0  0  0  0  0
    3.1866   -9.2575    2.0671 H   0  0  0  0  0  0  0  0  0  0  0  0
   -0.3474   -3.2543    1.3513 H   0  0  0  0  0  0  0  0  0  0  0  0
   -2.1084    1.1450    1.9871 H   0  0  0  0  0  0  0  0  0  0  0  0
   -1.7487    5.9454    2.7718 H   0  0  0  0  0  0  0  0  0  0  0  0
   -3.2795    6.8350    2.8518 H   0  0  0  0  0  0  0  0  0  0  0  0
   -2.4829    6.2006    5.1299 H   0  0  0  0  0  0  0  0  0  0  0  0
   -4.0255    5.4287    4.7527 H   0  0  0  0  0  0  0  0  0  0  0  0
   -2.5301    4.4949    4.6727 H   0  0  0  0  0  0  0  0  0  0  0  0
   -0.6520   -4.1441   -5.1301 H   0  0  0  0  0  0  0  0  0  0  0  0
   -2.0625   -4.7921   -5.9970 H   0  0  0  0  0  0  0  0  0  0  0  0
   -1.2588   -5.5388   -3.1428 H   0  0  0  0  0  0  0  0  0  0  0  0
   -0.9885   -6.5378   -4.5751 H   0  0  0  0  0  0  0  0  0  0  0  0
   -2.6339   -6.1983   -4.0308 H   0  0  0  0  0  0  0  0  0  0  0  0
   -5.2136    0.0808   -4.3450 H   0  0  0  0  0  0  0  0  0  0  0  0
   -6.2594    0.0585   -5.9611 H   0  0  0  0  0  0  0  0  0  0  0  0
   -5.9853   -0.4822   -9.3020 H   0  0  0  0  0  0  0  0  0  0  0  0
   -7.6092   -1.0618   -8.9831 H   0  0  0  0  0  0  0  0  0  0  0  0
   -6.3179   -1.3803   -7.8088 H   0  0  0  0  0  0  0  0  0  0  0  0
   -9.5381    2.5216  -10.3848 H   0  0  0  0  0  0  0  0  0  0  0  0
   -8.5834    1.8152  -11.7125 H   0  0  0  0  0  0  0  0  0  0  0  0
   -7.9334    3.1942  -10.7896 H   0  0  0  0  0  0  0  0  0  0  0  0
   -8.5434    3.6228   -8.5570 H   0  0  0  0  0  0  0  0  0  0  0  0
   -9.2865    5.7425   -6.8549 H   0  0  0  0  0  0  0  0  0  0  0  0
   -7.5353    7.4941   -6.9683 H   0  0  0  0  0  0  0  0  0  0  0  0
   -5.7254    7.2485   -4.3345 H   0  0  0  0  0  0  0  0  0  0  0  0
   -5.6968    8.4227    1.3937 H   0  0  0  0  0  0  0  0  0  0  0  0
   -6.9763    7.5293    0.5498 H   0  0  0  0  0  0  0  0  0  0  0  0
   -7.0916    9.3237   -1.1762 H   0  0  0  0  0  0  0  0  0  0  0  0
   -7.3888    9.9753    0.4392 H   0  0  0  0  0  0  0  0  0  0  0  0
   -5.8201   10.2179   -0.3358 H   0  0  0  0  0  0  0  0  0  0  0  0
   -3.3842   -1.4301   -8.8865 H   0  0  0  0  0  0  0  0  0  0  0  0
   -3.8176   -1.7547   -7.1963 H   0  0  0  0  0  0  0  0  0  0  0  0
   -1.4297   -1.6164   -6.5397 H   0  0  0  0  0  0  0  0  0  0  0  0
   -1.6725   -2.8550   -7.7799 H   0  0  0  0  0  0  0  0  0  0  0  0
   -0.9760   -1.2918   -8.2177 H   0  0  0  0  0  0  0  0  0  0  0  0
   -1.2989    1.6325   -4.4415 H   0  0  0  0  0  0  0  0  0  0  0  0
   -0.0558    2.8809    0.0108 H   0  0  0  0  0  0  0  0  0  0  0  0
    2.6649    5.3177    5.0563 H   0  0  0  0  0  0  0  0  0  0  0  0
    2.2710    3.7801    5.8557 H   0  0  0  0  0  0  0  0  0  0  0  0
    0.2486    5.6547    4.5470 H   0  0  0  0  0  0  0  0  0  0  0  0
   -0.1312    4.1136    5.3256 H   0  0  0  0  0  0  0  0  0  0  0  0
    0.5009    5.4544    6.2847 H   0  0  0  0  0  0  0  0  0  0  0  0
    3.7186   -3.8303   -5.5990 H   0  0  0  0  0  0  0  0  0  0  0  0
    2.2464   -4.8005   -5.6893 H   0  0  0  0  0  0  0  0  0  0  0  0
    2.2948   -3.0866   -7.4909 H   0  0  0  0  0  0  0  0  0  0  0  0
    2.4634   -1.8037   -6.2880 H   0  0  0  0  0  0  0  0  0  0  0  0
    0.9705   -2.7367   -6.3764 H   0  0  0  0  0  0  0  0  0  0  0  0
    3.4645   -3.3298    0.2940 H   0  0  0  0  0  0  0  0  0  0  0  0
    5.1010   -4.6531    1.3945 H   0  0  0  0  0  0  0  0  0  0  0  0
    4.8430   -8.6267   -1.3434 H   0  0  0  0  0  0  0  0  0  0  0  0
    6.4268   -8.8923   -2.0933 H   0  0  0  0  0  0  0  0  0  0  0  0
    5.3323  -11.0488   -1.4614 H   0  0  0  0  0  0  0  0  0  0  0  0
    5.2997  -10.5315    0.2298 H   0  0  0  0  0  0  0  0  0  0  0  0
    6.8436  -10.8096   -0.5791 H   0  0  0  0  0  0  0  0  0  0  0  0
    7.8627   -0.8738   10.3679 H   0  0  0  0  0  0  0  0  0  0  0  0
    6.3480   -1.7918   10.4170 H   0  0  0  0  0  0  0  0  0  0  0  0
    5.3490   -0.2201    8.7500 H   0  0  0  0  0  0  0  0  0  0  0  0
    6.8400    0.7278    8.7614 H   0  0  0  0  0  0  0  0  0  0  0  0
    5.8593    0.6174   10.2272 H   0  0  0  0  0  0  0  0  0  0  0  0
    8.9997   -5.7324    7.2844 H   0  0  0  0  0  0  0  0  0  0  0  0
    9.8988   -8.0225    6.4350 H   0  0  0  0  0  0  0  0  0  0  0  0
  1  2  2  0  0  0  0
  2  3  1  0  0  0  0
  3  4  2  0  0  0  0
  4  5  1  0  0  0  0
  5  6  1  0  0  0  0
  6  7  1  0  0  0  0
  7  8  1  0  0  0  0
  8  9  1  0  0  0  0
  7 10  2  0  0  0  0
 10 11  1  0  0  0  0
 10 12  1  0  0  0  0
 12 13  1  0  0  0  0
  4 14  1  0  0  0  0
 14 15  2  0  0  0  0
 15 16  1  0  0  0  0
 16 17  1  0  0  0  0
 17 18  1  0  0  0  0
 18 19  1  0  0  0  0
 19 20  1  0  0  0  0
 20 21  1  0  0  0  0
 19 22  2  0  0  0  0
 22 23  1  0  0  0  0
 23 24  1  0  0  0  0
 22 25  1  0  0  0  0
 16 26  2  0  0  0  0
 26 27  1  0  0  0  0
 15 28  1  0  0  0  0
 28 29  2  0  0  0  0
 29 30  1  0  0  0  0
 29 31  1  0  0  0  0
 31 32  2  0  0  0  0
 32 33  1  0  0  0  0
 33 34  2  0  0  0  0
 34 35  1  0  0  0  0
 35 36  1  0  0  0  0
 36 37  1  0  0  0  0
 37 38  1  0  0  0  0
 38 39  1  0  0  0  0
 37 40  2  0  0  0  0
 40 41  1  0  0  0  0
 40 42  1  0  0  0  0
 42 43  1  0  0  0  0
 34 44  1  0  0  0  0
 44 45  2  0  0  0  0
 45 46  1  0  0  0  0
 46 47  1  0  0  0  0
 47 48  1  0  0  0  0
 48 49  1  0  0  0  0
 49 50  1  0  0  0  0
 50 51  1  0  0  0  0
 49 52  2  0  0  0  0
 52 53  1  0  0  0  0
 53 54  1  0  0  0  0
 52 55  1  0  0  0  0
 46 56  2  0  0  0  0
 56 57  1  0  0  0  0
 45 58  1  0  0  0  0
 58 59  2  0  0  0  0
 59 60  1  0  0  0  0
 59 61  1  0  0  0  0
 61 62  1  0  0  0  0
 62 63  1  0  0  0  0
 63 64  2  0  0  0  0
 64 65  1  0  0  0  0
 65 66  1  0  0  0  0
 66 67  2  0  0  0  0
 67 68  1  0  0  0  0
 67 69  1  0  0  0  0
 69 70  1  0  0  0  0
 70 71  1  0  0  0  0
 69 72  2  0  0  0  0
 63 73  1  0  0  0  0
 73 74  2  0  0  0  0
 74 75  1  0  0  0  0
 75 76  2  0  0  0  0
 76 77  1  0  0  0  0
 77 78  2  0  0  0  0
 78 79  1  0  0  0  0
 79 80  1  0  0  0  0
 80 81  1  0  0  0  0
 81 82  1  0  0  0  0
 82 83  1  0  0  0  0
 81 84  2  0  0  0  0
 84 85  1  0  0  0  0
 84 86  1  0  0  0  0
 86 87  1  0  0  0  0
 78 88  1  0  0  0  0
 88 89  2  0  0  0  0
 89 90  1  0  0  0  0
 90 91  1  0  0  0  0
 91 92  1  0  0  0  0
 92 93  1  0  0  0  0
 93 94  1  0  0  0  0
 94 95  1  0  0  0  0
 93 96  2  0  0  0  0
 96 97  1  0  0  0  0
 97 98  1  0  0  0  0
 96 99  1  0  0  0  0
 90100  2  0  0  0  0
100101  1  0  0  0  0
 89102  1  0  0  0  0
102103  2  0  0  0  0
103104  1  0  0  0  0
103105  1  0  0  0  0
105106  2  0  0  0  0
106107  1  0  0  0  0
107108  2  0  0  0  0
108109  1  0  0  0  0
109110  1  0  0  0  0
110111  1  0  0  0  0
111112  1  0  0  0  0
112113  1  0  0  0  0
111114  2  0  0  0  0
114115  1  0  0  0  0
114116  1  0  0  0  0
116117  1  0  0  0  0
108118  1  0  0  0  0
118119  2  0  0  0  0
119120  1  0  0  0  0
120121  1  0  0  0  0
121122  1  0  0  0  0
122123  1  0  0  0  0
123124  1  0  0  0  0
124125  1  0  0  0  0
123126  2  0  0  0  0
126127  1  0  0  0  0
127128  1  0  0  0  0
126129  1  0  0  0  0
120130  2  0  0  0  0
130131  1  0  0  0  0
119132  1  0  0  0  0
132133  2  0  0  0  0
133134  1  0  0  0  0
133135  1  0  0  0  0
135136  2  0  0  0  0
136137  1  0  0  0  0
137138  2  0  0  0  0
138139  1  0  0  0  0
139140  1  0  0  0  0
140141  1  0  0  0  0
141142  1  0  0  0  0
142143  1  0  0  0  0
141144  2  0  0  0  0
144145  1  0  0  0  0
144146  1  0  0  0  0
146147  1  0  0  0  0
138148  1  0  0  0  0
148149  2  0  0  0  0
149150  1  0  0  0  0
150151  1  0  0  0  0
151152  1  0  0  0  0
152153  1  0  0  0  0
153154  1  0  0  0  0
154155  1  0  0  0  0
153156  2  0  0  0  0
156157  1  0  0  0  0
157158  1  0  0  0  0
156159  1  0  0  0  0
150160  2  0  0  0  0
160161  1  0  0  0  0
149162  1  0  0  0  0
162163  2  0  0  0  0
163164  1  0  0  0  0
 27  1  1  0  0  0  0
 57 31  1  0  0  0  0
 65 61  2  0  0  0  0
101 75  1  0  0  0  0
131105  1  0  0  0  0
161135  1  0  0  0  0
 26  3  1  0  0  0  0
 56 33  1  0  0  0  0
 72 64  1  0  0  0  0
100 77  1  0  0  0  0
130107  1  0  0  0  0
160137  1  0  0  0  0
 12  5  2  0  0  0  0
 30 14  1  0  0  0  0
 42 35  2  0  0  0  0
 60 44  1  0  0  0  0
 86 79  2  0  0  0  0
104 88  1  0  0  0  0
116109  2  0  0  0  0
134118  1  0  0  0  0
146139  2  0  0  0  0
164148  1  0  0  0  0
 23 17  2  0  0  0  0
 53 47  2  0  0  0  0
 97 91  2  0  0  0  0
127121  2  0  0  0  0
157151  2  0  0  0  0
  1165  1  0  0  0  0
  2166  1  0  0  0  0
  8167  1  0  0  0  0
  8168  1  0  0  0  0
  9169  1  0  0  0  0
  9170  1  0  0  0  0
  9171  1  0  0  0  0
 20172  1  0  0  0  0
 20173  1  0  0  0  0
 21174  1  0  0  0  0
 21175  1  0  0  0  0
 21176  1  0  0  0  0
 28177  1  0  0  0  0
 32178  1  0  0  0  0
 38179  1  0  0  0  0
 38180  1  0  0  0  0
 39181  1  0  0  0  0
 39182  1  0  0  0  0
 39183  1  0  0  0  0
 50184  1  0  0  0  0
 50185  1  0  0  0  0
 51186  1  0  0  0  0
 51187  1  0  0  0  0
 51188  1  0  0  0  0
 58189  1  0  0  0  0
 66190  1  0  0  0  0
 68191  1  0  0  0  0
 68192  1  0  0  0  0
 68193  1  0  0  0  0
 71194  1  0  0  0  0
 71195  1  0  0  0  0
 71196  1  0  0  0  0
 72197  1  0  0  0  0
 73198  1  0  0  0  0
 74199  1  0  0  0  0
 76200  1  0  0  0  0
 82201  1  0  0  0  0
 82202  1  0  0  0  0
 83203  1  0  0  0  0
 83204  1  0  0  0  0
 83205  1  0  0  0  0
 94206  1  0  0  0  0
 94207  1  0  0  0  0
 95208  1  0  0  0  0
 95209  1  0  0  0  0
 95210  1  0  0  0  0
102211  1  0  0  0  0
106212  1  0  0  0  0
112213  1  0  0  0  0
112214  1  0  0  0  0
113215  1  0  0  0  0
113216  1  0  0  0  0
113217  1  0  0  0  0
124218  1  0  0  0  0
124219  1  0  0  0  0
125220  1  0  0  0  0
125221  1  0  0  0  0
125222  1  0  0  0  0
132223  1  0  0  0  0
136224  1  0  0  0  0
142225  1  0  0  0  0
142226  1  0  0  0  0
143227  1  0  0  0  0
143228  1  0  0  0  0
143229  1  0  0  0  0
154230  1  0  0  0  0
154231  1  0  0  0  0
155232  1  0  0  0  0
155233  1  0  0  0  0
155234  1  0  0  0  0
162235  1  0  0  0  0
163236  1  0  0  0  0
M  END
