91

C         -7.28150        4.24350       -0.30900
S         -8.50320        3.44500        0.58990
C         -7.70680        1.90190        0.42330
C         -6.56670        2.03130       -0.34790
C         -6.31490        3.38270       -0.74590
C         -5.15530        3.74130       -1.45310
N         -4.17880        4.00160       -1.99500
C         -5.77230        0.97200       -0.80640
N         -5.12400        0.13510       -1.24920
C         -8.24400        0.73040        1.04830
C         -7.53770       -0.31990        1.52820
C         -6.12270       -0.42600        1.67690
S         -5.37150       -1.96860        1.45270
C         -3.77360       -1.31370        1.55290
C         -3.82450        0.04770        1.87630
C         -5.15730        0.54780        1.95660
C         -5.35930        1.89090        2.33810
C         -4.30280        2.73020        2.54000
C         -4.49150        4.16810        2.89780
C         -2.96810        2.22730        2.43100
O         -1.99810        3.14790        2.65520
C         -0.65190        2.75130        2.55900
C         -2.74010        0.90440        2.15100
C         -2.65460       -2.17640        1.36180
C         -1.45840       -1.87720        0.80330
C         -1.10220       -0.71180        0.05870
S         -2.23650        0.29100       -0.79330
C         -0.97630        1.27460       -1.46470
C          0.26720        0.86560       -1.01310
C          0.19670       -0.27970       -0.17090
C          1.34490       -0.87330        0.36370
N          2.30650       -1.33980        0.78350
C          1.48950        1.50490       -1.26280
N          2.51090        2.00690       -1.41610
C         -1.30820        2.36500       -2.33880
C         -0.56050        2.81940       -3.36120
C          0.63610        2.20730       -3.87570
S          1.97540        3.18570       -4.38000
C          2.95080        1.79380       -4.73780
C          2.22690        0.62990       -4.55810
C          0.91520        0.86470       -4.05460
C          0.02460       -0.18540       -3.77760
N         -0.67570       -1.06090       -3.53460
C          2.68120       -0.65470       -4.90210
N          3.02920       -1.70690       -5.19720
C          4.29210        1.96380       -5.21420
C          5.36230        1.18370       -4.96100
C          5.50670        0.09980       -4.03870
S          4.54580       -0.17340       -2.61840
C          5.48550       -1.56310       -2.15490
C          6.51570       -1.78580       -3.06170
C          6.53180       -0.83430       -4.11370
C          7.48500       -0.83760       -5.14800
N          8.26370       -0.81160       -5.98880
C          7.46890       -2.81710       -3.00520
N          8.27330       -3.63450       -3.00320
C          5.10800       -2.28600       -0.99110
C          5.75210       -3.37010       -0.49750
C          5.31210       -4.09310        0.64350
S          3.84560       -3.71170        1.49390
C          4.08370       -5.00930        2.61500
C          5.25150       -5.70370        2.34020
C          5.95160       -5.18470        1.21880
C          7.16720       -5.71870        0.75750
N          8.16130       -6.16300        0.39940
C          5.68880       -6.80490        3.09680
N          6.03000       -7.70100        3.72530
C          3.16010       -5.29250        3.67730
C          2.06140       -4.58030        3.91880
H         -7.33310        5.30230       -0.47010
H         -9.32230        0.70210        1.12770
H         -8.09730       -1.19850        1.82440
H         -6.36380        2.24940        2.50200
H         -4.07130        4.80100        2.11670
H         -3.95960        4.39870        3.81890
H         -5.54520        4.40390        3.02230
H         -0.39750        1.99750        3.31040
H         -0.06560        3.65060        2.73920
H         -0.41770        2.36330        1.56230
H         -1.74430        0.49420        2.15880
H         -2.79690       -3.19330        1.70650
H         -0.67060       -2.61820        0.86740
H         -2.25410        2.85240       -2.13880
H         -0.86860        3.72970       -3.85750
H          4.44150        2.82950       -5.84640
H          6.27260        1.40390       -5.50690
H          4.22300       -1.92090       -0.48220
H          6.65030       -3.74560       -0.96950
H          3.41780       -6.14500        4.29300
H          1.39810       -4.82590        4.72860
H          1.80310       -3.72390        3.31640
