
  xtb     03032200213D
 energy: -276.032190205930 gnorm: 0.000741991072 xtb: 6.4.1 (unknown)
164178  0     0  0            999 V2000
   -0.4379    4.2814    7.2578 C   0  0  0  0  0  0  0  0  0  0  0  0
   -1.7124    3.5097    6.4274 S   0  0  0  0  0  0  0  0  0  0  0  0
   -1.7645    4.7284    5.1871 C   0  0  0  0  0  0  0  0  0  0  0  0
   -0.7818    5.7033    5.4438 C   0  0  0  0  0  0  0  0  0  0  0  0
   -0.0296    5.4377    6.6308 C   0  0  0  0  0  0  0  0  0  0  0  0
    0.9943    6.3303    7.0279 C   0  0  0  0  0  0  0  0  0  0  0  0
    1.2718    7.4367    6.2863 C   0  0  0  0  0  0  0  0  0  0  0  0
    2.3408    8.4089    6.6710 C   0  0  0  0  0  0  0  0  0  0  0  0
    0.5244    7.6919    5.0908 C   0  0  0  0  0  0  0  0  0  0  0  0
    0.9018    8.8225    4.4298 O   0  0  0  0  0  0  0  0  0  0  0  0
    0.2363    9.1622    3.2403 C   0  0  0  0  0  0  0  0  0  0  0  0
   -0.4738    6.8465    4.6810 C   0  0  0  0  0  0  0  0  0  0  0  0
   -2.7400    4.8221    4.1711 C   0  0  0  0  0  0  0  0  0  0  0  0
   -3.7234    3.9839    3.7261 C   0  0  0  0  0  0  0  0  0  0  0  0
   -4.0090    2.6230    3.9481 C   0  0  0  0  0  0  0  0  0  0  0  0
   -2.9013    1.4639    4.6058 S   0  0  0  0  0  0  0  0  0  0  0  0
   -3.9642    0.1143    4.3070 C   0  0  0  0  0  0  0  0  0  0  0  0
   -5.1729    0.5683    3.7454 C   0  0  0  0  0  0  0  0  0  0  0  0
   -5.1899    1.9724    3.5278 C   0  0  0  0  0  0  0  0  0  0  0  0
   -6.3353    2.5562    2.9551 C   0  0  0  0  0  0  0  0  0  0  0  0
   -7.4127    1.7923    2.6046 C   0  0  0  0  0  0  0  0  0  0  0  0
   -8.6401    2.3872    1.9920 C   0  0  0  0  0  0  0  0  0  0  0  0
   -7.3825    0.3830    2.8243 C   0  0  0  0  0  0  0  0  0  0  0  0
   -8.5118   -0.2734    2.4399 O   0  0  0  0  0  0  0  0  0  0  0  0
   -8.5701   -1.6671    2.6125 C   0  0  0  0  0  0  0  0  0  0  0  0
   -6.2817   -0.2159    3.3842 C   0  0  0  0  0  0  0  0  0  0  0  0
   -3.5614   -1.2023    4.5589 C   0  0  0  0  0  0  0  0  0  0  0  0
   -2.2835   -1.5594    4.8921 C   0  0  0  0  0  0  0  0  0  0  0  0
   -1.8153   -2.8695    5.0433 C   0  0  0  0  0  0  0  0  0  0  0  0
   -2.8651   -4.2577    5.0625 S   0  0  0  0  0  0  0  0  0  0  0  0
   -1.5363   -5.3829    5.0102 C   0  0  0  0  0  0  0  0  0  0  0  0
   -0.3169   -4.6921    5.0662 C   0  0  0  0  0  0  0  0  0  0  0  0
   -0.4689   -3.2800    5.0964 C   0  0  0  0  0  0  0  0  0  0  0  0
    0.6784   -2.4679    5.1382 C   0  0  0  0  0  0  0  0  0  0  0  0
    1.9281   -3.0215    5.1493 C   0  0  0  0  0  0  0  0  0  0  0  0
    3.1648   -2.1823    5.1835 C   0  0  0  0  0  0  0  0  0  0  0  0
    2.0715   -4.4416    5.1361 C   0  0  0  0  0  0  0  0  0  0  0  0
    3.3594   -4.8840    5.1485 O   0  0  0  0  0  0  0  0  0  0  0  0
    3.5899   -6.2676    5.0630 C   0  0  0  0  0  0  0  0  0  0  0  0
    0.9713   -5.2594    5.1101 C   0  0  0  0  0  0  0  0  0  0  0  0
   -1.7659   -6.7829    4.9632 C   0  0  0  0  0  0  0  0  0  0  0  0
   -1.0822   -7.6817    4.1968 C   0  0  0  0  0  0  0  0  0  0  0  0
   -0.2744   -7.3960    3.0734 C   0  0  0  0  0  0  0  0  0  0  0  0
   -0.2111   -5.8250    2.3543 S   0  0  0  0  0  0  0  0  0  0  0  0
    0.6385   -6.3795    0.9372 C   0  0  0  0  0  0  0  0  0  0  0  0
    0.9291   -7.7497    1.0552 C   0  0  0  0  0  0  0  0  0  0  0  0
    0.4139   -8.3180    2.2588 C   0  0  0  0  0  0  0  0  0  0  0  0
    0.6299   -9.6831    2.5226 C   0  0  0  0  0  0  0  0  0  0  0  0
    1.3202  -10.4686    1.6433 C   0  0  0  0  0  0  0  0  0  0  0  0
    1.5653  -11.9213    1.8987 C   0  0  0  0  0  0  0  0  0  0  0  0
    1.8324   -9.8945    0.4420 C   0  0  0  0  0  0  0  0  0  0  0  0
    2.5071  -10.7669   -0.3578 O   0  0  0  0  0  0  0  0  0  0  0  0
    3.0355  -10.2952   -1.5720 C   0  0  0  0  0  0  0  0  0  0  0  0
    1.6418   -8.5655    0.1577 C   0  0  0  0  0  0  0  0  0  0  0  0
    0.8211   -5.3863   -0.0433 C   0  0  0  0  0  0  0  0  0  0  0  0
    1.3290   -5.4415   -1.3036 C   0  0  0  0  0  0  0  0  0  0  0  0
    1.3108   -4.3047   -2.1563 C   0  0  0  0  0  0  0  0  0  0  0  0
    0.7262   -3.0831   -1.9404 C   0  0  0  0  0  0  0  0  0  0  0  0
    0.8742   -2.1738   -3.0057 C   0  0  0  0  0  0  0  0  0  0  0  0
    0.4022   -0.8479   -3.0795 C   0  0  0  0  0  0  0  0  0  0  0  0
   -0.3180   -0.2516   -1.9653 C   0  0  0  0  0  0  0  0  0  0  0  0
    0.3548   -0.2631   -0.3585 S   0  0  0  0  0  0  0  0  0  0  0  0
   -1.0179    0.5442    0.3124 C   0  0  0  0  0  0  0  0  0  0  0  0
   -1.1409    0.8534    1.7643 C   0  0  0  0  0  0  0  0  0  0  0  0
    0.1439    0.6087    2.5413 C   0  0  0  0  0  0  0  0  0  0  0  0
   -1.9326    0.8061   -0.6639 C   0  0  0  0  0  0  0  0  0  0  0  0
   -3.4331    1.5831   -0.3493 Cl  0  0  0  0  0  0  0  0  0  0  0  0
   -1.5403    0.3621   -1.9544 C   0  0  0  0  0  0  0  0  0  0  0  0
   -2.5580    0.5153   -3.3247 Cl  0  0  0  0  0  0  0  0  0  0  0  0
    0.6772   -0.1504   -4.2454 C   0  0  0  0  0  0  0  0  0  0  0  0
    1.3907   -0.7115   -5.3338 C   0  0  0  0  0  0  0  0  0  0  0  0
    1.8449   -2.0433   -5.2657 C   0  0  0  0  0  0  0  0  0  0  0  0
    2.5818   -2.6450   -6.3652 C   0  0  0  0  0  0  0  0  0  0  0  0
    4.0295   -1.9104   -6.9907 S   0  0  0  0  0  0  0  0  0  0  0  0
    4.2649   -3.1721   -8.1512 C   0  0  0  0  0  0  0  0  0  0  0  0
    5.4474   -3.1819   -9.0562 C   0  0  0  0  0  0  0  0  0  0  0  0
    6.6325   -3.8941   -8.3999 C   0  0  0  0  0  0  0  0  0  0  0  0
    3.2768   -4.1035   -8.0420 C   0  0  0  0  0  0  0  0  0  0  0  0
    2.3196   -3.8073   -7.0347 C   0  0  0  0  0  0  0  0  0  0  0  0
    0.9375   -4.7839   -6.7655 Cl  0  0  0  0  0  0  0  0  0  0  0  0
    3.1716   -5.5025   -9.0302 Cl  0  0  0  0  0  0  0  0  0  0  0  0
    1.5771   -2.7422   -4.0988 C   0  0  0  0  0  0  0  0  0  0  0  0
    2.0707   -4.3727   -3.7382 S   0  0  0  0  0  0  0  0  0  0  0  0
    1.5388    0.2056   -6.3953 C   0  0  0  0  0  0  0  0  0  0  0  0
    0.9945    1.4407   -6.1532 C   0  0  0  0  0  0  0  0  0  0  0  0
    0.2552    1.5073   -4.5628 S   0  0  0  0  0  0  0  0  0  0  0  0
    1.0130    2.5448   -7.0438 C   0  0  0  0  0  0  0  0  0  0  0  0
    1.9014    2.3867   -8.5273 S   0  0  0  0  0  0  0  0  0  0  0  0
    1.5055    3.9891   -9.0482 C   0  0  0  0  0  0  0  0  0  0  0  0
    0.7052    4.6264   -8.0987 C   0  0  0  0  0  0  0  0  0  0  0  0
    0.4228    3.8097   -6.9594 C   0  0  0  0  0  0  0  0  0  0  0  0
   -0.3897    4.3340   -5.9315 C   0  0  0  0  0  0  0  0  0  0  0  0
   -0.8931    5.5981   -6.0115 C   0  0  0  0  0  0  0  0  0  0  0  0
   -1.7584    6.1726   -4.9369 C   0  0  0  0  0  0  0  0  0  0  0  0
   -0.5967    6.4126   -7.1506 C   0  0  0  0  0  0  0  0  0  0  0  0
   -1.1521    7.6562   -7.1120 O   0  0  0  0  0  0  0  0  0  0  0  0
   -0.9214    8.5275   -8.1896 C   0  0  0  0  0  0  0  0  0  0  0  0
    0.1815    5.9360   -8.1695 C   0  0  0  0  0  0  0  0  0  0  0  0
    1.9738    4.5063  -10.2955 C   0  0  0  0  0  0  0  0  0  0  0  0
    2.7367    3.8415  -11.1651 C   0  0  0  0  0  0  0  0  0  0  0  0
   -0.0548    3.8480    8.1599 H   0  0  0  0  0  0  0  0  0  0  0  0
    1.5501    6.1186    7.9292 H   0  0  0  0  0  0  0  0  0  0  0  0
    2.8244    8.1054    7.5954 H   0  0  0  0  0  0  0  0  0  0  0  0
    1.9137    9.4023    6.7985 H   0  0  0  0  0  0  0  0  0  0  0  0
    3.0865    8.4763    5.8806 H   0  0  0  0  0  0  0  0  0  0  0  0
   -0.8303    9.3405    3.4126 H   0  0  0  0  0  0  0  0  0  0  0  0
    0.7029   10.0831    2.8936 H   0  0  0  0  0  0  0  0  0  0  0  0
    0.3557    8.3868    2.4764 H   0  0  0  0  0  0  0  0  0  0  0  0
   -1.0271    7.0394    3.7765 H   0  0  0  0  0  0  0  0  0  0  0  0
   -2.7331    5.7918    3.6869 H   0  0  0  0  0  0  0  0  0  0  0  0
   -4.4167    4.4408    3.0295 H   0  0  0  0  0  0  0  0  0  0  0  0
   -6.3703    3.6228    2.7924 H   0  0  0  0  0  0  0  0  0  0  0  0
   -8.5416    3.4648    1.8931 H   0  0  0  0  0  0  0  0  0  0  0  0
   -8.8140    1.9516    1.0092 H   0  0  0  0  0  0  0  0  0  0  0  0
   -9.5112    2.1605    2.6047 H   0  0  0  0  0  0  0  0  0  0  0  0
   -8.4836   -1.9456    3.6680 H   0  0  0  0  0  0  0  0  0  0  0  0
   -7.7897   -2.1764    2.0379 H   0  0  0  0  0  0  0  0  0  0  0  0
   -9.5473   -1.9701    2.2396 H   0  0  0  0  0  0  0  0  0  0  0  0
   -6.2458   -1.2788    3.5571 H   0  0  0  0  0  0  0  0  0  0  0  0
   -4.2986   -1.9822    4.4224 H   0  0  0  0  0  0  0  0  0  0  0  0
   -1.5439   -0.7749    4.9806 H   0  0  0  0  0  0  0  0  0  0  0  0
    0.5723   -1.3942    5.1650 H   0  0  0  0  0  0  0  0  0  0  0  0
    2.9153   -1.1249    5.2013 H   0  0  0  0  0  0  0  0  0  0  0  0
    3.7584   -2.4271    6.0630 H   0  0  0  0  0  0  0  0  0  0  0  0
    3.7806   -2.3905    4.3100 H   0  0  0  0  0  0  0  0  0  0  0  0
    4.6721   -6.3861    5.0342 H   0  0  0  0  0  0  0  0  0  0  0  0
    3.1541   -6.6920    4.1521 H   0  0  0  0  0  0  0  0  0  0  0  0
    3.1917   -6.7978    5.9343 H   0  0  0  0  0  0  0  0  0  0  0  0
    1.0612   -6.3329    5.1237 H   0  0  0  0  0  0  0  0  0  0  0  0
   -2.5848   -7.1556    5.5665 H   0  0  0  0  0  0  0  0  0  0  0  0
   -1.2675   -8.7332    4.3736 H   0  0  0  0  0  0  0  0  0  0  0  0
    0.2505  -10.1139    3.4372 H   0  0  0  0  0  0  0  0  0  0  0  0
    2.6352  -12.1234    1.9135 H   0  0  0  0  0  0  0  0  0  0  0  0
    1.1353  -12.5185    1.0961 H   0  0  0  0  0  0  0  0  0  0  0  0
    1.1294  -12.2276    2.8458 H   0  0  0  0  0  0  0  0  0  0  0  0
    3.5115  -11.1553   -2.0404 H   0  0  0  0  0  0  0  0  0  0  0  0
    3.7838   -9.5126   -1.4088 H   0  0  0  0  0  0  0  0  0  0  0  0
    2.2494   -9.9135   -2.2315 H   0  0  0  0  0  0  0  0  0  0  0  0
    2.0384   -8.1278   -0.7407 H   0  0  0  0  0  0  0  0  0  0  0  0
    0.4481   -4.4219    0.2794 H   0  0  0  0  0  0  0  0  0  0  0  0
    1.7448   -6.3466   -1.7158 H   0  0  0  0  0  0  0  0  0  0  0  0
    0.1824   -2.8429   -1.0471 H   0  0  0  0  0  0  0  0  0  0  0  0
   -1.4512    1.8972    1.8719 H   0  0  0  0  0  0  0  0  0  0  0  0
   -1.9435    0.2364    2.1817 H   0  0  0  0  0  0  0  0  0  0  0  0
    0.0059    0.9035    3.5785 H   0  0  0  0  0  0  0  0  0  0  0  0
    0.4166   -0.4441    2.5069 H   0  0  0  0  0  0  0  0  0  0  0  0
    0.9612    1.1908    2.1216 H   0  0  0  0  0  0  0  0  0  0  0  0
    5.1781   -3.6982   -9.9798 H   0  0  0  0  0  0  0  0  0  0  0  0
    5.7269   -2.1548   -9.2964 H   0  0  0  0  0  0  0  0  0  0  0  0
    6.3706   -4.9232   -8.1675 H   0  0  0  0  0  0  0  0  0  0  0  0
    6.9118   -3.3897   -7.4779 H   0  0  0  0  0  0  0  0  0  0  0  0
    7.4869   -3.8944   -9.0714 H   0  0  0  0  0  0  0  0  0  0  0  0
    2.0278   -0.0316   -7.3228 H   0  0  0  0  0  0  0  0  0  0  0  0
   -0.6216    3.7259   -5.0722 H   0  0  0  0  0  0  0  0  0  0  0  0
   -1.9125    5.4512   -4.1395 H   0  0  0  0  0  0  0  0  0  0  0  0
   -1.2979    7.0704   -4.5270 H   0  0  0  0  0  0  0  0  0  0  0  0
   -2.7227    6.4641   -5.3503 H   0  0  0  0  0  0  0  0  0  0  0  0
   -1.3149    8.1208   -9.1271 H   0  0  0  0  0  0  0  0  0  0  0  0
    0.1450    8.7464   -8.3088 H   0  0  0  0  0  0  0  0  0  0  0  0
   -1.4520    9.4466   -7.9458 H   0  0  0  0  0  0  0  0  0  0  0  0
    0.4065    6.5384   -9.0339 H   0  0  0  0  0  0  0  0  0  0  0  0
    1.6671    5.5192  -10.5201 H   0  0  0  0  0  0  0  0  0  0  0  0
    3.0581    4.2868  -12.0894 H   0  0  0  0  0  0  0  0  0  0  0  0
    3.0602    2.8326  -10.9702 H   0  0  0  0  0  0  0  0  0  0  0  0
  1  2  1  0  0  0  0
  2  3  1  0  0  0  0
  3  4  2  0  0  0  0
  4  5  1  0  0  0  0
  5  6  1  0  0  0  0
  6  7  2  0  0  0  0
  7  8  1  0  0  0  0
  7  9  1  0  0  0  0
  9 10  1  0  0  0  0
 10 11  1  0  0  0  0
  9 12  2  0  0  0  0
  3 13  1  0  0  0  0
 13 14  2  0  0  0  0
 14 15  1  0  0  0  0
 15 16  1  0  0  0  0
 16 17  1  0  0  0  0
 17 18  2  0  0  0  0
 18 19  1  0  0  0  0
 19 20  1  0  0  0  0
 20 21  2  0  0  0  0
 21 22  1  0  0  0  0
 21 23  1  0  0  0  0
 23 24  1  0  0  0  0
 24 25  1  0  0  0  0
 23 26  2  0  0  0  0
 17 27  1  0  0  0  0
 27 28  2  0  0  0  0
 28 29  1  0  0  0  0
 29 30  1  0  0  0  0
 30 31  1  0  0  0  0
 31 32  2  0  0  0  0
 32 33  1  0  0  0  0
 33 34  1  0  0  0  0
 34 35  2  0  0  0  0
 35 36  1  0  0  0  0
 35 37  1  0  0  0  0
 37 38  1  0  0  0  0
 38 39  1  0  0  0  0
 37 40  2  0  0  0  0
 31 41  1  0  0  0  0
 41 42  2  0  0  0  0
 42 43  1  0  0  0  0
 43 44  1  0  0  0  0
 44 45  1  0  0  0  0
 45 46  2  0  0  0  0
 46 47  1  0  0  0  0
 47 48  1  0  0  0  0
 48 49  2  0  0  0  0
 49 50  1  0  0  0  0
 49 51  1  0  0  0  0
 51 52  1  0  0  0  0
 52 53  1  0  0  0  0
 51 54  2  0  0  0  0
 45 55  1  0  0  0  0
 55 56  2  0  0  0  0
 56 57  1  0  0  0  0
 57 58  2  0  0  0  0
 58 59  1  0  0  0  0
 59 60  2  0  0  0  0
 60 61  1  0  0  0  0
 61 62  1  0  0  0  0
 62 63  1  0  0  0  0
 63 64  1  0  0  0  0
 64 65  1  0  0  0  0
 63 66  2  0  0  0  0
 66 67  1  0  0  0  0
 66 68  1  0  0  0  0
 68 69  1  0  0  0  0
 60 70  1  0  0  0  0
 70 71  2  0  0  0  0
 71 72  1  0  0  0  0
 72 73  1  0  0  0  0
 73 74  1  0  0  0  0
 74 75  1  0  0  0  0
 75 76  1  0  0  0  0
 76 77  1  0  0  0  0
 75 78  2  0  0  0  0
 78 79  1  0  0  0  0
 79 80  1  0  0  0  0
 78 81  1  0  0  0  0
 72 82  2  0  0  0  0
 82 83  1  0  0  0  0
 71 84  1  0  0  0  0
 84 85  2  0  0  0  0
 85 86  1  0  0  0  0
 85 87  1  0  0  0  0
 87 88  1  0  0  0  0
 88 89  1  0  0  0  0
 89 90  2  0  0  0  0
 90 91  1  0  0  0  0
 91 92  1  0  0  0  0
 92 93  2  0  0  0  0
 93 94  1  0  0  0  0
 93 95  1  0  0  0  0
 95 96  1  0  0  0  0
 96 97  1  0  0  0  0
 95 98  2  0  0  0  0
 89 99  1  0  0  0  0
 99100  2  0  0  0  0
  5  1  2  0  0  0  0
 19 15  2  0  0  0  0
 33 29  2  0  0  0  0
 47 43  2  0  0  0  0
 83 57  1  0  0  0  0
 91 87  2  0  0  0  0
 12  4  1  0  0  0  0
 26 18  1  0  0  0  0
 40 32  1  0  0  0  0
 54 46  1  0  0  0  0
 82 59  1  0  0  0  0
 98 90  1  0  0  0  0
 68 61  2  0  0  0  0
 86 70  1  0  0  0  0
 79 73  2  0  0  0  0
  1101  1  0  0  0  0
  6102  1  0  0  0  0
  8103  1  0  0  0  0
  8104  1  0  0  0  0
  8105  1  0  0  0  0
 11106  1  0  0  0  0
 11107  1  0  0  0  0
 11108  1  0  0  0  0
 12109  1  0  0  0  0
 13110  1  0  0  0  0
 14111  1  0  0  0  0
 20112  1  0  0  0  0
 22113  1  0  0  0  0
 22114  1  0  0  0  0
 22115  1  0  0  0  0
 25116  1  0  0  0  0
 25117  1  0  0  0  0
 25118  1  0  0  0  0
 26119  1  0  0  0  0
 27120  1  0  0  0  0
 28121  1  0  0  0  0
 34122  1  0  0  0  0
 36123  1  0  0  0  0
 36124  1  0  0  0  0
 36125  1  0  0  0  0
 39126  1  0  0  0  0
 39127  1  0  0  0  0
 39128  1  0  0  0  0
 40129  1  0  0  0  0
 41130  1  0  0  0  0
 42131  1  0  0  0  0
 48132  1  0  0  0  0
 50133  1  0  0  0  0
 50134  1  0  0  0  0
 50135  1  0  0  0  0
 53136  1  0  0  0  0
 53137  1  0  0  0  0
 53138  1  0  0  0  0
 54139  1  0  0  0  0
 55140  1  0  0  0  0
 56141  1  0  0  0  0
 58142  1  0  0  0  0
 64143  1  0  0  0  0
 64144  1  0  0  0  0
 65145  1  0  0  0  0
 65146  1  0  0  0  0
 65147  1  0  0  0  0
 76148  1  0  0  0  0
 76149  1  0  0  0  0
 77150  1  0  0  0  0
 77151  1  0  0  0  0
 77152  1  0  0  0  0
 84153  1  0  0  0  0
 92154  1  0  0  0  0
 94155  1  0  0  0  0
 94156  1  0  0  0  0
 94157  1  0  0  0  0
 97158  1  0  0  0  0
 97159  1  0  0  0  0
 97160  1  0  0  0  0
 98161  1  0  0  0  0
 99162  1  0  0  0  0
100163  1  0  0  0  0
100164  1  0  0  0  0
M  END
