
  xtb     03032214193D
 energy: -426.673406175378 gnorm: 0.000516061600 xtb: 6.4.1 (unknown)
250273  0     0  0            999 V2000
    5.5871   -4.4947    6.3355 C   0  0  0  0  0  0  0  0  0  0  0  0
    5.2940   -3.2680    5.8583 C   0  0  0  0  0  0  0  0  0  0  0  0
    4.0357   -3.2133    5.1890 C   0  0  0  0  0  0  0  0  0  0  0  0
    3.4059   -2.1122    4.5847 C   0  0  0  0  0  0  0  0  0  0  0  0
    4.0192   -0.7781    4.5481 C   0  0  0  0  0  0  0  0  0  0  0  0
    4.0498   -0.0478    3.3602 C   0  0  0  0  0  0  0  0  0  0  0  0
    4.6445    1.1903    3.3045 C   0  0  0  0  0  0  0  0  0  0  0  0
    5.2284    1.7763    4.4298 C   0  0  0  0  0  0  0  0  0  0  0  0
    5.9679    3.3467    4.1401 S   0  0  0  0  0  0  0  0  0  0  0  0
    6.6864    3.9030    5.7342 C   0  0  0  0  0  0  0  0  0  0  0  0
    7.3379    5.2543    5.5165 C   0  0  0  0  0  0  0  0  0  0  0  0
    5.1514    1.0602    5.6212 C   0  0  0  0  0  0  0  0  0  0  0  0
    5.6292    1.5602    6.7825 F   0  0  0  0  0  0  0  0  0  0  0  0
    4.5685   -0.1922    5.6831 C   0  0  0  0  0  0  0  0  0  0  0  0
    2.1663   -2.3547    4.0069 C   0  0  0  0  0  0  0  0  0  0  0  0
    1.5305   -3.6201    4.0211 C   0  0  0  0  0  0  0  0  0  0  0  0
    2.1760   -4.7226    4.5941 C   0  0  0  0  0  0  0  0  0  0  0  0
    1.5684   -6.0606    4.5754 C   0  0  0  0  0  0  0  0  0  0  0  0
    2.2444   -7.1341    4.0001 C   0  0  0  0  0  0  0  0  0  0  0  0
    1.6755   -8.3915    3.9785 C   0  0  0  0  0  0  0  0  0  0  0  0
    0.4237   -8.6155    4.5381 C   0  0  0  0  0  0  0  0  0  0  0  0
   -0.2827  -10.2450    4.6099 S   0  0  0  0  0  0  0  0  0  0  0  0
   -0.4400  -10.6221    2.8260 C   0  0  0  0  0  0  0  0  0  0  0  0
   -1.6748   -9.9666    2.2402 C   0  0  0  0  0  0  0  0  0  0  0  0
   -0.2375   -7.5382    5.1173 C   0  0  0  0  0  0  0  0  0  0  0  0
    0.3114   -6.2710    5.1315 C   0  0  0  0  0  0  0  0  0  0  0  0
   -1.4501   -7.7129    5.6749 F   0  0  0  0  0  0  0  0  0  0  0  0
    3.4160   -4.4871    5.1665 C   0  0  0  0  0  0  0  0  0  0  0  0
    4.3758   -5.6812    5.9974 S   0  0  0  0  0  0  0  0  0  0  0  0
    0.2745   -3.5991    3.3580 C   0  0  0  0  0  0  0  0  0  0  0  0
   -0.0574   -2.3781    2.8587 C   0  0  0  0  0  0  0  0  0  0  0  0
    1.1718   -1.1678    3.1995 S   0  0  0  0  0  0  0  0  0  0  0  0
   -1.1581   -2.0181    2.0258 C   0  0  0  0  0  0  0  0  0  0  0  0
   -1.5147   -0.7586    1.6489 C   0  0  0  0  0  0  0  0  0  0  0  0
   -2.5044   -0.7153    0.6367 C   0  0  0  0  0  0  0  0  0  0  0  0
   -3.0203    0.4119   -0.0311 C   0  0  0  0  0  0  0  0  0  0  0  0
   -2.7146    1.7979    0.3405 C   0  0  0  0  0  0  0  0  0  0  0  0
   -1.4417    2.2485    0.6781 C   0  0  0  0  0  0  0  0  0  0  0  0
   -1.2175    3.5629    1.0444 C   0  0  0  0  0  0  0  0  0  0  0  0
   -2.2487    4.4930    1.0490 C   0  0  0  0  0  0  0  0  0  0  0  0
   -2.0986    6.2025    1.4387 S   0  0  0  0  0  0  0  0  0  0  0  0
   -0.4113    6.3913    2.1083 C   0  0  0  0  0  0  0  0  0  0  0  0
   -0.2654    5.8257    3.5072 C   0  0  0  0  0  0  0  0  0  0  0  0
   -3.5151    4.0388    0.6786 C   0  0  0  0  0  0  0  0  0  0  0  0
   -4.5448    4.9114    0.6553 F   0  0  0  0  0  0  0  0  0  0  0  0
   -3.7582    2.7270    0.3507 C   0  0  0  0  0  0  0  0  0  0  0  0
   -3.8613    0.1476   -1.1030 C   0  0  0  0  0  0  0  0  0  0  0  0
   -4.3086   -1.1488   -1.4500 C   0  0  0  0  0  0  0  0  0  0  0  0
   -3.9042   -2.2599   -0.6877 C   0  0  0  0  0  0  0  0  0  0  0  0
   -4.4879   -3.5769   -0.9607 C   0  0  0  0  0  0  0  0  0  0  0  0
   -5.8766   -3.7010   -1.0418 C   0  0  0  0  0  0  0  0  0  0  0  0
   -6.4632   -4.9225   -1.2866 C   0  0  0  0  0  0  0  0  0  0  0  0
   -5.6913   -6.0644   -1.4943 C   0  0  0  0  0  0  0  0  0  0  0  0
   -6.5425   -7.5752   -1.8414 S   0  0  0  0  0  0  0  0  0  0  0  0
   -5.5706   -8.8524   -0.9579 C   0  0  0  0  0  0  0  0  0  0  0  0
   -5.4030   -8.5354    0.5141 C   0  0  0  0  0  0  0  0  0  0  0  0
   -4.3097   -5.9144   -1.4591 C   0  0  0  0  0  0  0  0  0  0  0  0
   -3.7060   -4.7077   -1.1675 C   0  0  0  0  0  0  0  0  0  0  0  0
   -3.5036   -6.9663   -1.7367 F   0  0  0  0  0  0  0  0  0  0  0  0
   -2.9449   -2.0190    0.2829 C   0  0  0  0  0  0  0  0  0  0  0  0
   -2.1121   -3.2431    1.2098 S   0  0  0  0  0  0  0  0  0  0  0  0
   -5.0206   -1.1643   -2.6743 C   0  0  0  0  0  0  0  0  0  0  0  0
   -5.0821    0.0571   -3.2864 C   0  0  0  0  0  0  0  0  0  0  0  0
   -4.3781    1.3183   -2.2821 S   0  0  0  0  0  0  0  0  0  0  0  0
   -5.4558    0.4361   -4.6001 C   0  0  0  0  0  0  0  0  0  0  0  0
   -4.9942    2.0322   -5.0741 S   0  0  0  0  0  0  0  0  0  0  0  0
   -5.4336    1.7810   -6.7251 C   0  0  0  0  0  0  0  0  0  0  0  0
   -5.9773    0.4997   -6.8886 C   0  0  0  0  0  0  0  0  0  0  0  0
   -6.0062   -0.2632   -5.6793 C   0  0  0  0  0  0  0  0  0  0  0  0
   -6.5506   -1.5630   -5.7090 C   0  0  0  0  0  0  0  0  0  0  0  0
   -7.0154   -2.1032   -6.8718 C   0  0  0  0  0  0  0  0  0  0  0  0
   -7.5882   -3.4827   -6.9314 C   0  0  0  0  0  0  0  0  0  0  0  0
   -6.9646   -1.3403   -8.0805 C   0  0  0  0  0  0  0  0  0  0  0  0
   -7.4575   -1.9851   -9.1730 O   0  0  0  0  0  0  0  0  0  0  0  0
   -7.4511   -1.3150  -10.4082 C   0  0  0  0  0  0  0  0  0  0  0  0
   -6.4664   -0.0644   -8.0839 C   0  0  0  0  0  0  0  0  0  0  0  0
   -5.0707    2.7261   -7.7270 C   0  0  0  0  0  0  0  0  0  0  0  0
   -4.6077    3.9738   -7.4921 C   0  0  0  0  0  0  0  0  0  0  0  0
   -4.6897    4.6189   -6.2043 C   0  0  0  0  0  0  0  0  0  0  0  0
   -3.3038    5.2363   -5.3724 S   0  0  0  0  0  0  0  0  0  0  0  0
   -4.2385    5.7562   -4.0071 C   0  0  0  0  0  0  0  0  0  0  0  0
   -5.5938    5.4965   -4.2214 C   0  0  0  0  0  0  0  0  0  0  0  0
   -5.8466    4.8352   -5.4581 C   0  0  0  0  0  0  0  0  0  0  0  0
   -7.1741    4.4899   -5.7974 C   0  0  0  0  0  0  0  0  0  0  0  0
   -8.1997    4.7623   -4.9440 C   0  0  0  0  0  0  0  0  0  0  0  0
   -9.6155    4.4050   -5.2651 C   0  0  0  0  0  0  0  0  0  0  0  0
   -7.9327    5.4041   -3.6898 C   0  0  0  0  0  0  0  0  0  0  0  0
   -9.0356    5.6087   -2.9199 O   0  0  0  0  0  0  0  0  0  0  0  0
   -8.8714    6.2214   -1.6643 C   0  0  0  0  0  0  0  0  0  0  0  0
   -6.6596    5.7641   -3.3377 C   0  0  0  0  0  0  0  0  0  0  0  0
   -3.7063    6.4904   -2.9057 C   0  0  0  0  0  0  0  0  0  0  0  0
   -2.5340    6.3561   -2.2500 C   0  0  0  0  0  0  0  0  0  0  0  0
   -1.5834    5.2925   -2.2729 C   0  0  0  0  0  0  0  0  0  0  0  0
   -0.3986    5.3195   -1.5897 C   0  0  0  0  0  0  0  0  0  0  0  0
    0.3014    4.0925   -1.5897 C   0  0  0  0  0  0  0  0  0  0  0  0
    1.4750    3.7696   -0.8951 C   0  0  0  0  0  0  0  0  0  0  0  0
    2.1810    4.7001   -0.0031 C   0  0  0  0  0  0  0  0  0  0  0  0
    2.4562    4.3055    1.3089 C   0  0  0  0  0  0  0  0  0  0  0  0
    3.1491    5.1314    2.1667 C   0  0  0  0  0  0  0  0  0  0  0  0
    3.5871    6.3829    1.7510 C   0  0  0  0  0  0  0  0  0  0  0  0
    4.4759    7.3905    2.9082 S   0  0  0  0  0  0  0  0  0  0  0  0
    6.0036    7.7438    1.9638 C   0  0  0  0  0  0  0  0  0  0  0  0
    6.6963    6.4666    1.5322 C   0  0  0  0  0  0  0  0  0  0  0  0
    3.2811    6.7814    0.4538 C   0  0  0  0  0  0  0  0  0  0  0  0
    3.6627    7.9970    0.0076 F   0  0  0  0  0  0  0  0  0  0  0  0
    2.5976    5.9591   -0.4217 C   0  0  0  0  0  0  0  0  0  0  0  0
    1.9146    2.4607   -1.0001 C   0  0  0  0  0  0  0  0  0  0  0  0
    1.2447    1.4431   -1.7216 C   0  0  0  0  0  0  0  0  0  0  0  0
    0.0412    1.7611   -2.3884 C   0  0  0  0  0  0  0  0  0  0  0  0
   -0.7336    0.7489   -3.1138 C   0  0  0  0  0  0  0  0  0  0  0  0
   -1.2799    1.0224   -4.3699 C   0  0  0  0  0  0  0  0  0  0  0  0
   -2.0077    0.0712   -5.0447 C   0  0  0  0  0  0  0  0  0  0  0  0
   -2.2189   -1.2087   -4.5226 C   0  0  0  0  0  0  0  0  0  0  0  0
   -3.1793   -2.2635   -5.5600 S   0  0  0  0  0  0  0  0  0  0  0  0
   -3.4466   -3.8551   -4.6965 C   0  0  0  0  0  0  0  0  0  0  0  0
   -2.2953   -4.8246   -4.8767 C   0  0  0  0  0  0  0  0  0  0  0  0
   -1.6568   -1.4713   -3.2796 C   0  0  0  0  0  0  0  0  0  0  0  0
   -0.9465   -0.5164   -2.5782 C   0  0  0  0  0  0  0  0  0  0  0  0
   -1.7618   -2.6905   -2.6934 F   0  0  0  0  0  0  0  0  0  0  0  0
   -0.3867    3.0829   -2.3133 C   0  0  0  0  0  0  0  0  0  0  0  0
   -1.8767    3.7127   -2.9734 S   0  0  0  0  0  0  0  0  0  0  0  0
    1.9382    0.2014   -1.6238 C   0  0  0  0  0  0  0  0  0  0  0  0
    3.0704    0.2640   -0.8658 C   0  0  0  0  0  0  0  0  0  0  0  0
    3.3702    1.8787   -0.2572 S   0  0  0  0  0  0  0  0  0  0  0  0
    3.9594   -0.7361   -0.3523 C   0  0  0  0  0  0  0  0  0  0  0  0
    3.7610   -2.0621   -0.1089 C   0  0  0  0  0  0  0  0  0  0  0  0
    4.7526   -2.6395    0.7366 C   0  0  0  0  0  0  0  0  0  0  0  0
    4.8008   -3.9302    1.2922 C   0  0  0  0  0  0  0  0  0  0  0  0
    3.7688   -4.9381    1.0335 C   0  0  0  0  0  0  0  0  0  0  0  0
    2.4164   -4.6100    1.0905 C   0  0  0  0  0  0  0  0  0  0  0  0
    1.4395   -5.5629    0.8927 C   0  0  0  0  0  0  0  0  0  0  0  0
    1.7800   -6.8837    0.6291 C   0  0  0  0  0  0  0  0  0  0  0  0
    0.5990   -8.1647    0.3752 S   0  0  0  0  0  0  0  0  0  0  0  0
   -0.7441   -7.2804   -0.4877 C   0  0  0  0  0  0  0  0  0  0  0  0
   -0.2654   -6.6603   -1.7849 C   0  0  0  0  0  0  0  0  0  0  0  0
    3.1346   -7.2058    0.5843 C   0  0  0  0  0  0  0  0  0  0  0  0
    3.5009   -8.4792    0.3403 F   0  0  0  0  0  0  0  0  0  0  0  0
    4.1190   -6.2617    0.7715 C   0  0  0  0  0  0  0  0  0  0  0  0
    5.8601   -4.1997    2.1540 C   0  0  0  0  0  0  0  0  0  0  0  0
    6.8177   -3.2334    2.5411 C   0  0  0  0  0  0  0  0  0  0  0  0
    6.7541   -1.9382    2.0122 C   0  0  0  0  0  0  0  0  0  0  0  0
    7.6087   -0.8443    2.4863 C   0  0  0  0  0  0  0  0  0  0  0  0
    8.2573    0.0172    1.6086 C   0  0  0  0  0  0  0  0  0  0  0  0
    8.9818    1.1002    2.0698 C   0  0  0  0  0  0  0  0  0  0  0  0
    9.0777    1.3655    3.4302 C   0  0  0  0  0  0  0  0  0  0  0  0
    9.9517    2.7032    4.1692 S   0  0  0  0  0  0  0  0  0  0  0  0
   10.7509    3.5550    2.7675 C   0  0  0  0  0  0  0  0  0  0  0  0
    9.8092    4.5035    2.0491 C   0  0  0  0  0  0  0  0  0  0  0  0
    8.4280    0.4870    4.2995 C   0  0  0  0  0  0  0  0  0  0  0  0
    7.7116   -0.5979    3.8540 C   0  0  0  0  0  0  0  0  0  0  0  0
    8.4961    0.7150    5.6283 F   0  0  0  0  0  0  0  0  0  0  0  0
    5.7515   -1.6969    1.0865 C   0  0  0  0  0  0  0  0  0  0  0  0
    5.4685   -0.1580    0.3318 S   0  0  0  0  0  0  0  0  0  0  0  0
    7.7687   -3.7640    3.4622 C   0  0  0  0  0  0  0  0  0  0  0  0
    7.5333   -5.0539    3.7726 C   0  0  0  0  0  0  0  0  0  0  0  0
    6.1509   -5.7137    2.9725 S   0  0  0  0  0  0  0  0  0  0  0  0
    6.4617   -4.7938    6.8796 H   0  0  0  0  0  0  0  0  0  0  0  0
    5.9450   -2.4221    5.9776 H   0  0  0  0  0  0  0  0  0  0  0  0
    3.6160   -0.4672    2.4674 H   0  0  0  0  0  0  0  0  0  0  0  0
    4.6758    1.7391    2.3757 H   0  0  0  0  0  0  0  0  0  0  0  0
    7.4174    3.1617    6.0522 H   0  0  0  0  0  0  0  0  0  0  0  0
    5.8785    3.9713    6.4603 H   0  0  0  0  0  0  0  0  0  0  0  0
    8.1580    5.1680    4.8075 H   0  0  0  0  0  0  0  0  0  0  0  0
    6.6144    5.9734    5.1367 H   0  0  0  0  0  0  0  0  0  0  0  0
    7.7345    5.6216    6.4600 H   0  0  0  0  0  0  0  0  0  0  0  0
    4.5234   -0.6835    6.6431 H   0  0  0  0  0  0  0  0  0  0  0  0
    3.2204   -6.9778    3.5657 H   0  0  0  0  0  0  0  0  0  0  0  0
    2.2110   -9.2166    3.5343 H   0  0  0  0  0  0  0  0  0  0  0  0
   -0.5076  -11.7079    2.7751 H   0  0  0  0  0  0  0  0  0  0  0  0
    0.4656  -10.2894    2.3224 H   0  0  0  0  0  0  0  0  0  0  0  0
   -1.6059   -8.8842    2.3255 H   0  0  0  0  0  0  0  0  0  0  0  0
   -1.7656  -10.2261    1.1872 H   0  0  0  0  0  0  0  0  0  0  0  0
   -2.5663  -10.2995    2.7670 H   0  0  0  0  0  0  0  0  0  0  0  0
   -0.2329   -5.4644    5.5987 H   0  0  0  0  0  0  0  0  0  0  0  0
   -0.3511   -4.4662    3.2457 H   0  0  0  0  0  0  0  0  0  0  0  0
   -1.0618    0.1108    2.0880 H   0  0  0  0  0  0  0  0  0  0  0  0
   -0.5969    1.5799    0.6230 H   0  0  0  0  0  0  0  0  0  0  0  0
   -0.2192    3.8630    1.3135 H   0  0  0  0  0  0  0  0  0  0  0  0
    0.2927    5.9447    1.4087 H   0  0  0  0  0  0  0  0  0  0  0  0
   -0.2602    7.4709    2.1134 H   0  0  0  0  0  0  0  0  0  0  0  0
    0.7471    6.0014    3.8655 H   0  0  0  0  0  0  0  0  0  0  0  0
   -0.4585    4.7554    3.5200 H   0  0  0  0  0  0  0  0  0  0  0  0
   -0.9652    6.3095    4.1843 H   0  0  0  0  0  0  0  0  0  0  0  0
   -4.7691    2.4330    0.1181 H   0  0  0  0  0  0  0  0  0  0  0  0
   -6.4958   -2.8316   -0.8809 H   0  0  0  0  0  0  0  0  0  0  0  0
   -7.5372   -5.0175   -1.3236 H   0  0  0  0  0  0  0  0  0  0  0  0
   -4.6140   -8.9789   -1.4606 H   0  0  0  0  0  0  0  0  0  0  0  0
   -6.1666   -9.7539   -1.0999 H   0  0  0  0  0  0  0  0  0  0  0  0
   -6.3720   -8.3874    0.9861 H   0  0  0  0  0  0  0  0  0  0  0  0
   -4.8090   -7.6344    0.6559 H   0  0  0  0  0  0  0  0  0  0  0  0
   -4.8947   -9.3602    1.0094 H   0  0  0  0  0  0  0  0  0  0  0  0
   -2.6300   -4.6452   -1.1561 H   0  0  0  0  0  0  0  0  0  0  0  0
   -5.3894   -2.0698   -3.1171 H   0  0  0  0  0  0  0  0  0  0  0  0
   -6.6140   -2.1354   -4.7977 H   0  0  0  0  0  0  0  0  0  0  0  0
   -8.6092   -3.4485   -7.3076 H   0  0  0  0  0  0  0  0  0  0  0  0
   -7.5839   -3.9489   -5.9497 H   0  0  0  0  0  0  0  0  0  0  0  0
   -7.0108   -4.0950   -7.6225 H   0  0  0  0  0  0  0  0  0  0  0  0
   -8.0654   -0.4090  -10.3775 H   0  0  0  0  0  0  0  0  0  0  0  0
   -7.8774   -2.0139  -11.1261 H   0  0  0  0  0  0  0  0  0  0  0  0
   -6.4340   -1.0535  -10.7179 H   0  0  0  0  0  0  0  0  0  0  0  0
   -6.4428    0.5287   -8.9834 H   0  0  0  0  0  0  0  0  0  0  0  0
   -5.0846    2.3598   -8.7449 H   0  0  0  0  0  0  0  0  0  0  0  0
   -4.1555    4.5346   -8.2995 H   0  0  0  0  0  0  0  0  0  0  0  0
   -7.3639    3.9986   -6.7403 H   0  0  0  0  0  0  0  0  0  0  0  0
   -9.6816    3.9249   -6.2378 H   0  0  0  0  0  0  0  0  0  0  0  0
  -10.2368    5.2992   -5.2621 H   0  0  0  0  0  0  0  0  0  0  0  0
  -10.0120    3.7332   -4.5055 H   0  0  0  0  0  0  0  0  0  0  0  0
   -9.8666    6.2643   -1.2245 H   0  0  0  0  0  0  0  0  0  0  0  0
   -8.4753    7.2372   -1.7629 H   0  0  0  0  0  0  0  0  0  0  0  0
   -8.2113    5.6381   -1.0149 H   0  0  0  0  0  0  0  0  0  0  0  0
   -6.4428    6.2374   -2.3945 H   0  0  0  0  0  0  0  0  0  0  0  0
   -4.3626    7.2791   -2.5537 H   0  0  0  0  0  0  0  0  0  0  0  0
   -2.3015    7.1087   -1.5063 H   0  0  0  0  0  0  0  0  0  0  0  0
   -0.0499    6.2003   -1.0811 H   0  0  0  0  0  0  0  0  0  0  0  0
    2.1255    3.3407    1.6626 H   0  0  0  0  0  0  0  0  0  0  0  0
    3.3776    4.8101    3.1703 H   0  0  0  0  0  0  0  0  0  0  0  0
    6.6160    8.3100    2.6653 H   0  0  0  0  0  0  0  0  0  0  0  0
    5.7521    8.3804    1.1174 H   0  0  0  0  0  0  0  0  0  0  0  0
    6.8459    5.8074    2.3845 H   0  0  0  0  0  0  0  0  0  0  0  0
    6.1011    5.9327    0.7935 H   0  0  0  0  0  0  0  0  0  0  0  0
    7.6624    6.7034    1.0910 H   0  0  0  0  0  0  0  0  0  0  0  0
    2.4111    6.3011   -1.4279 H   0  0  0  0  0  0  0  0  0  0  0  0
   -1.1176    1.9841   -4.8299 H   0  0  0  0  0  0  0  0  0  0  0  0
   -2.4292    0.2957   -6.0128 H   0  0  0  0  0  0  0  0  0  0  0  0
   -3.6526   -3.6537   -3.6486 H   0  0  0  0  0  0  0  0  0  0  0  0
   -4.3522   -4.2393   -5.1683 H   0  0  0  0  0  0  0  0  0  0  0  0
   -2.0913   -4.9802   -5.9337 H   0  0  0  0  0  0  0  0  0  0  0  0
   -2.5533   -5.7821   -4.4279 H   0  0  0  0  0  0  0  0  0  0  0  0
   -1.3931   -4.4494   -4.4007 H   0  0  0  0  0  0  0  0  0  0  0  0
   -0.5836   -0.7752   -1.5956 H   0  0  0  0  0  0  0  0  0  0  0  0
    1.6224   -0.6992   -2.1178 H   0  0  0  0  0  0  0  0  0  0  0  0
    2.9111   -2.5997   -0.4868 H   0  0  0  0  0  0  0  0  0  0  0  0
    2.1234   -3.5997    1.3236 H   0  0  0  0  0  0  0  0  0  0  0  0
    0.4026   -5.2726    0.9545 H   0  0  0  0  0  0  0  0  0  0  0  0
   -1.4819   -8.0579   -0.6783 H   0  0  0  0  0  0  0  0  0  0  0  0
   -1.1792   -6.5447    0.1884 H   0  0  0  0  0  0  0  0  0  0  0  0
   -1.1098   -6.2442   -2.3276 H   0  0  0  0  0  0  0  0  0  0  0  0
    0.2072   -7.4149   -2.4097 H   0  0  0  0  0  0  0  0  0  0  0  0
    0.4538   -5.8651   -1.5970 H   0  0  0  0  0  0  0  0  0  0  0  0
    5.1503   -6.5635    0.6838 H   0  0  0  0  0  0  0  0  0  0  0  0
    8.2106   -0.1668    0.5462 H   0  0  0  0  0  0  0  0  0  0  0  0
    9.4683    1.7381    1.3508 H   0  0  0  0  0  0  0  0  0  0  0  0
   11.5732    4.1028    3.2281 H   0  0  0  0  0  0  0  0  0  0  0  0
   11.1679    2.7970    2.1058 H   0  0  0  0  0  0  0  0  0  0  0  0
    8.9148    3.9882    1.7058 H   0  0  0  0  0  0  0  0  0  0  0  0
   10.3119    4.9435    1.1896 H   0  0  0  0  0  0  0  0  0  0  0  0
    9.5044    5.3053    2.7173 H   0  0  0  0  0  0  0  0  0  0  0  0
    7.2094   -1.2299    4.5679 H   0  0  0  0  0  0  0  0  0  0  0  0
    8.5955   -3.1959    3.8482 H   0  0  0  0  0  0  0  0  0  0  0  0
    8.0965   -5.6917    4.4254 H   0  0  0  0  0  0  0  0  0  0  0  0
  1  2  2  0  0  0  0
  2  3  1  0  0  0  0
  3  4  2  0  0  0  0
  4  5  1  0  0  0  0
  5  6  2  0  0  0  0
  6  7  1  0  0  0  0
  7  8  2  0  0  0  0
  8  9  1  0  0  0  0
  9 10  1  0  0  0  0
 10 11  1  0  0  0  0
  8 12  1  0  0  0  0
 12 13  1  0  0  0  0
 12 14  2  0  0  0  0
  4 15  1  0  0  0  0
 15 16  2  0  0  0  0
 16 17  1  0  0  0  0
 17 18  1  0  0  0  0
 18 19  2  0  0  0  0
 19 20  1  0  0  0  0
 20 21  2  0  0  0  0
 21 22  1  0  0  0  0
 22 23  1  0  0  0  0
 23 24  1  0  0  0  0
 21 25  1  0  0  0  0
 25 26  2  0  0  0  0
 25 27  1  0  0  0  0
 17 28  2  0  0  0  0
 28 29  1  0  0  0  0
 16 30  1  0  0  0  0
 30 31  2  0  0  0  0
 31 32  1  0  0  0  0
 31 33  1  0  0  0  0
 33 34  2  0  0  0  0
 34 35  1  0  0  0  0
 35 36  2  0  0  0  0
 36 37  1  0  0  0  0
 37 38  2  0  0  0  0
 38 39  1  0  0  0  0
 39 40  2  0  0  0  0
 40 41  1  0  0  0  0
 41 42  1  0  0  0  0
 42 43  1  0  0  0  0
 40 44  1  0  0  0  0
 44 45  1  0  0  0  0
 44 46  2  0  0  0  0
 36 47  1  0  0  0  0
 47 48  2  0  0  0  0
 48 49  1  0  0  0  0
 49 50  1  0  0  0  0
 50 51  2  0  0  0  0
 51 52  1  0  0  0  0
 52 53  2  0  0  0  0
 53 54  1  0  0  0  0
 54 55  1  0  0  0  0
 55 56  1  0  0  0  0
 53 57  1  0  0  0  0
 57 58  2  0  0  0  0
 57 59  1  0  0  0  0
 49 60  2  0  0  0  0
 60 61  1  0  0  0  0
 48 62  1  0  0  0  0
 62 63  2  0  0  0  0
 63 64  1  0  0  0  0
 63 65  1  0  0  0  0
 65 66  1  0  0  0  0
 66 67  1  0  0  0  0
 67 68  2  0  0  0  0
 68 69  1  0  0  0  0
 69 70  1  0  0  0  0
 70 71  2  0  0  0  0
 71 72  1  0  0  0  0
 71 73  1  0  0  0  0
 73 74  1  0  0  0  0
 74 75  1  0  0  0  0
 73 76  2  0  0  0  0
 67 77  1  0  0  0  0
 77 78  2  0  0  0  0
 78 79  1  0  0  0  0
 79 80  1  0  0  0  0
 80 81  1  0  0  0  0
 81 82  2  0  0  0  0
 82 83  1  0  0  0  0
 83 84  1  0  0  0  0
 84 85  2  0  0  0  0
 85 86  1  0  0  0  0
 85 87  1  0  0  0  0
 87 88  1  0  0  0  0
 88 89  1  0  0  0  0
 87 90  2  0  0  0  0
 81 91  1  0  0  0  0
 91 92  2  0  0  0  0
 92 93  1  0  0  0  0
 93 94  2  0  0  0  0
 94 95  1  0  0  0  0
 95 96  2  0  0  0  0
 96 97  1  0  0  0  0
 97 98  2  0  0  0  0
 98 99  1  0  0  0  0
 99100  2  0  0  0  0
100101  1  0  0  0  0
101102  1  0  0  0  0
102103  1  0  0  0  0
100104  1  0  0  0  0
104105  1  0  0  0  0
104106  2  0  0  0  0
 96107  1  0  0  0  0
107108  2  0  0  0  0
108109  1  0  0  0  0
109110  1  0  0  0  0
110111  2  0  0  0  0
111112  1  0  0  0  0
112113  2  0  0  0  0
113114  1  0  0  0  0
114115  1  0  0  0  0
115116  1  0  0  0  0
113117  1  0  0  0  0
117118  2  0  0  0  0
117119  1  0  0  0  0
109120  2  0  0  0  0
120121  1  0  0  0  0
108122  1  0  0  0  0
122123  2  0  0  0  0
123124  1  0  0  0  0
123125  1  0  0  0  0
125126  2  0  0  0  0
126127  1  0  0  0  0
127128  2  0  0  0  0
128129  1  0  0  0  0
129130  2  0  0  0  0
130131  1  0  0  0  0
131132  2  0  0  0  0
132133  1  0  0  0  0
133134  1  0  0  0  0
134135  1  0  0  0  0
132136  1  0  0  0  0
136137  1  0  0  0  0
136138  2  0  0  0  0
128139  1  0  0  0  0
139140  2  0  0  0  0
140141  1  0  0  0  0
141142  1  0  0  0  0
142143  2  0  0  0  0
143144  1  0  0  0  0
144145  2  0  0  0  0
145146  1  0  0  0  0
146147  1  0  0  0  0
147148  1  0  0  0  0
145149  1  0  0  0  0
149150  2  0  0  0  0
149151  1  0  0  0  0
141152  2  0  0  0  0
152153  1  0  0  0  0
140154  1  0  0  0  0
154155  2  0  0  0  0
155156  1  0  0  0  0
 29  1  1  0  0  0  0
 61 33  1  0  0  0  0
 69 65  2  0  0  0  0
 83 79  2  0  0  0  0
121 93  1  0  0  0  0
153125  1  0  0  0  0
 28  3  1  0  0  0  0
 60 35  1  0  0  0  0
 76 68  1  0  0  0  0
 90 82  1  0  0  0  0
120 95  1  0  0  0  0
152127  1  0  0  0  0
 14  5  1  0  0  0  0
 32 15  1  0  0  0  0
 46 37  1  0  0  0  0
 64 47  1  0  0  0  0
106 97  1  0  0  0  0
124107  1  0  0  0  0
138129  1  0  0  0  0
156139  1  0  0  0  0
 26 18  1  0  0  0  0
 58 50  1  0  0  0  0
118110  1  0  0  0  0
150142  1  0  0  0  0
  1157  1  0  0  0  0
  2158  1  0  0  0  0
  6159  1  0  0  0  0
  7160  1  0  0  0  0
 10161  1  0  0  0  0
 10162  1  0  0  0  0
 11163  1  0  0  0  0
 11164  1  0  0  0  0
 11165  1  0  0  0  0
 14166  1  0  0  0  0
 19167  1  0  0  0  0
 20168  1  0  0  0  0
 23169  1  0  0  0  0
 23170  1  0  0  0  0
 24171  1  0  0  0  0
 24172  1  0  0  0  0
 24173  1  0  0  0  0
 26174  1  0  0  0  0
 30175  1  0  0  0  0
 34176  1  0  0  0  0
 38177  1  0  0  0  0
 39178  1  0  0  0  0
 42179  1  0  0  0  0
 42180  1  0  0  0  0
 43181  1  0  0  0  0
 43182  1  0  0  0  0
 43183  1  0  0  0  0
 46184  1  0  0  0  0
 51185  1  0  0  0  0
 52186  1  0  0  0  0
 55187  1  0  0  0  0
 55188  1  0  0  0  0
 56189  1  0  0  0  0
 56190  1  0  0  0  0
 56191  1  0  0  0  0
 58192  1  0  0  0  0
 62193  1  0  0  0  0
 70194  1  0  0  0  0
 72195  1  0  0  0  0
 72196  1  0  0  0  0
 72197  1  0  0  0  0
 75198  1  0  0  0  0
 75199  1  0  0  0  0
 75200  1  0  0  0  0
 76201  1  0  0  0  0
 77202  1  0  0  0  0
 78203  1  0  0  0  0
 84204  1  0  0  0  0
 86205  1  0  0  0  0
 86206  1  0  0  0  0
 86207  1  0  0  0  0
 89208  1  0  0  0  0
 89209  1  0  0  0  0
 89210  1  0  0  0  0
 90211  1  0  0  0  0
 91212  1  0  0  0  0
 92213  1  0  0  0  0
 94214  1  0  0  0  0
 98215  1  0  0  0  0
 99216  1  0  0  0  0
102217  1  0  0  0  0
102218  1  0  0  0  0
103219  1  0  0  0  0
103220  1  0  0  0  0
103221  1  0  0  0  0
106222  1  0  0  0  0
111223  1  0  0  0  0
112224  1  0  0  0  0
115225  1  0  0  0  0
115226  1  0  0  0  0
116227  1  0  0  0  0
116228  1  0  0  0  0
116229  1  0  0  0  0
118230  1  0  0  0  0
122231  1  0  0  0  0
126232  1  0  0  0  0
130233  1  0  0  0  0
131234  1  0  0  0  0
134235  1  0  0  0  0
134236  1  0  0  0  0
135237  1  0  0  0  0
135238  1  0  0  0  0
135239  1  0  0  0  0
138240  1  0  0  0  0
143241  1  0  0  0  0
144242  1  0  0  0  0
147243  1  0  0  0  0
147244  1  0  0  0  0
148245  1  0  0  0  0
148246  1  0  0  0  0
148247  1  0  0  0  0
150248  1  0  0  0  0
154249  1  0  0  0  0
155250  1  0  0  0  0
M  END
