182

C          7.36400        3.48960        4.47770
S          5.83180        2.80860        4.79420
C          6.01460        1.62100        3.53660
C          7.25320        1.77390        2.90250
C          8.02160        2.85030        3.44940
C          9.30330        3.13000        2.91580
C          9.80370        2.38290        1.89480
C         11.15360        2.64080        1.30530
C          9.02860        1.30250        1.35410
O          9.63920        0.62890        0.34260
C          8.96630       -0.45730       -0.24710
C          7.78590        1.00640        1.84780
C          5.02820        0.65660        3.24090
C          3.85130        0.47310        3.88790
C          2.92500       -0.54020        3.51520
C          2.99330       -1.38870        2.44340
C          1.93320       -2.31340        2.37100
C          1.71990       -3.30680        1.39660
C          2.61950       -3.44800        0.26470
S          1.98560       -3.38380       -1.35680
C          3.56160       -3.44480       -2.06390
C          3.73330       -3.45630       -3.54190
C          3.35850       -4.82100       -4.12370
C          4.51100       -3.53210       -1.09130
Cl         6.19850       -3.60990       -1.40100
C          3.98300       -3.53500        0.22800
Cl         4.98370       -3.72710        1.61220
C          0.55260       -4.04670        1.50260
C         -0.40990       -3.84850        2.52130
C         -0.19660       -2.84950        3.49090
C         -1.19620       -2.57360        4.51020
S         -1.75410       -3.81920        5.58910
C         -2.84200       -2.74230        6.39770
C         -3.65740       -3.19340        7.55880
C         -2.86720       -3.06450        8.86320
C         -2.76210       -1.49600        5.85400
C         -1.83370       -1.39560        4.78210
Cl        -1.62250        0.04890        3.88990
Cl        -3.69900       -0.16050        6.38550
C          0.97980       -2.11810        3.40340
S          1.48590       -0.84150        4.47590
C         -1.54980       -4.66460        2.33080
C         -1.48060       -5.46990        1.22640
S          0.05120       -5.28030        0.38570
C         -2.52500       -6.20480        0.60960
S         -4.17370       -5.89650        1.07740
C         -4.79590       -6.55980       -0.39210
C         -3.78010       -7.14390       -1.13510
C         -2.48410       -6.96120       -0.56290
C         -1.36720       -7.49670       -1.23900
C         -1.51350       -8.13860       -2.43260
C         -0.34440       -8.70790       -3.16940
C         -2.81530       -8.28970       -3.01240
O         -2.82600       -8.92870       -4.21390
C         -4.05470       -9.06790       -4.88200
C         -3.92520       -7.81950       -2.36840
C         -6.10110       -6.19590       -0.94000
C         -6.11550       -5.31070       -1.94280
C         -4.86940       -4.62580       -2.29090
S         -3.92860       -4.99500       -3.68630
C         -2.56140       -4.05710       -3.14070
C         -2.84950       -3.47160       -1.90610
C         -4.16990       -3.77420       -1.44860
C         -4.62880       -3.24020       -0.22020
C         -3.81110       -2.47910        0.55520
C         -4.23960       -1.94680        1.88290
C         -2.47590       -2.20620        0.11000
O         -1.76180       -1.42110        0.95550
C         -0.56670       -0.85120        0.48920
C         -2.00150       -2.70620       -1.07470
C         -1.38090       -4.08850       -3.94630
C         -0.42900       -3.14170       -4.12780
C         -0.49430       -1.78390       -3.69560
C         -1.61050       -1.07050       -3.37000
C         -1.35340        0.24190       -2.92300
C         -2.27470        1.17060       -2.40230
C         -3.64350        0.76870       -2.12070
S         -4.65620       -0.02100       -3.29290
C         -5.92600       -0.28060       -2.14910
C         -7.19390       -0.95550       -2.54030
C         -8.20260        0.04530       -3.10810
C         -5.58320        0.24360       -0.94000
Cl        -6.60020        0.18970        0.43770
C         -4.28990        0.83080       -0.91540
Cl        -3.59770        1.45950        0.52090
C         -1.77420        2.41900       -2.06290
C         -0.39500        2.74380       -2.11870
C          0.53850        1.76180       -2.50360
C          1.97280        1.98510       -2.39350
S          2.79460        3.26910       -3.22790
C          4.33130        2.83070       -2.55920
C          5.57710        3.55640       -2.93050
C          6.19420        2.96870       -4.20200
C          4.19560        1.74620       -1.74700
C          2.86380        1.26650       -1.64670
Cl         2.43880       -0.03580       -0.61270
Cl         5.48710        1.02160       -0.88970
C          0.03130        0.54500       -2.93530
S          0.95950       -0.80700       -3.52360
C         -0.15140        4.07170       -1.70670
C         -1.28130        4.77380       -1.37300
S         -2.71800        3.78000       -1.53580
C         -1.33000        6.12960       -0.95700
S          0.15020        7.03720       -0.93780
C         -0.62960        8.48120       -0.39030
C         -1.99870        8.26440       -0.22470
C         -2.40000        6.92920       -0.54280
C         -3.75930        6.57690       -0.40090
C         -4.68020        7.48830        0.02180
C         -6.12300        7.13490        0.18440
C         -4.27180        8.82630        0.32550
O         -5.28300        9.64340        0.72930
C         -4.98120       10.97660        1.05430
C         -2.96180        9.20240        0.20730
C          0.10450        9.68630       -0.16170
C          1.42200        9.82430       -0.31920
H          7.70590        4.32130        5.06100
H          9.87770        3.94330        3.33420
H         11.63980        3.47620        1.80170
H         11.77740        1.75350        1.40090
H         11.06180        2.85790        0.24220
H          8.76720       -1.25020        0.48060
H          9.63600       -0.83650       -1.01740
H          8.02480       -0.14520       -0.70850
H          7.20550        0.19340        1.44530
H          5.27000        0.00540        2.41340
H          3.59470        1.09770        4.73250
H          3.77280       -1.33820        1.70870
H          3.09870       -2.68370       -3.98220
H          4.77430       -3.22650       -3.77530
H          4.00750       -5.59420       -3.71970
H          2.32930       -5.06740       -3.87140
H          3.46370       -4.80930       -5.20550
H         -3.95190       -4.23410        7.41280
H         -4.55720       -2.57780        7.61460
H         -2.57860       -2.02930        9.02690
H         -1.96720       -3.67340        8.82050
H         -3.47360       -3.39470        9.70230
H         -2.41660       -4.64050        2.96670
H         -0.38680       -7.41650       -0.79730
H         -0.28520       -8.27380       -4.16620
H          0.58110       -8.51050       -2.63590
H         -0.46710       -9.78280       -3.29320
H         -3.82390       -9.55730       -5.82700
H         -4.51380       -8.09330       -5.07770
H         -4.75330       -9.69040       -4.31350
H         -4.91870       -7.93680       -2.77010
H         -7.00310       -6.64920       -0.55370
H         -7.02080       -5.06840       -2.48300
H         -5.63730       -3.46070        0.09780
H         -3.62810       -2.38570        2.67020
H         -5.28450       -2.17580        2.07350
H         -4.08900       -0.87070        1.92730
H         -0.20230       -0.21680        1.29540
H         -0.74420       -0.24090       -0.40090
H          0.18600       -1.60920        0.26030
H         -0.97750       -2.55970       -1.36840
H         -1.25120       -5.01570       -4.49320
H          0.45680       -3.41550       -4.68430
H         -2.59560       -1.47810       -3.47720
H         -6.97660       -1.71980       -3.28860
H         -7.61550       -1.43990       -1.65730
H         -9.12110       -0.46510       -3.38540
H         -8.43610        0.80500       -2.36650
H         -7.79380        0.53360       -3.98950
H          5.34760        4.61100       -3.09120
H          6.28990        3.47480       -2.10700
H          6.43480        1.91890       -4.05350
H          5.49690        3.05140       -5.03230
H          7.10570        3.50290       -4.45590
H          0.82960        4.50950       -1.66360
H         -4.07660        5.57110       -0.62310
H         -6.73630        7.76270       -0.46020
H         -6.29430        6.09090       -0.06190
H         -6.43870        7.31970        1.21000
H         -5.92720       11.43160        1.34380
H         -4.56820       11.51630        0.19560
H         -4.27950       11.03720        1.89270
H         -2.64240       10.20480        0.43940
H         -0.48570       10.53200        0.16490
H          2.03790        9.00100       -0.64070
H          1.91770       10.75930       -0.12980
