
  xtb     03042207033D
 energy: -426.610709059539 gnorm: 0.000289784399 xtb: 6.4.1 (unknown)
250273  0     0  0            999 V2000
   -1.8801   -6.2253   11.3317 C   0  0  0  0  0  0  0  0  0  0  0  0
   -1.0258   -6.2367   10.2885 C   0  0  0  0  0  0  0  0  0  0  0  0
   -1.5325   -5.5492    9.1450 C   0  0  0  0  0  0  0  0  0  0  0  0
   -0.9227   -5.3765    7.8909 C   0  0  0  0  0  0  0  0  0  0  0  0
    0.4871   -5.7070    7.6567 C   0  0  0  0  0  0  0  0  0  0  0  0
    0.9178   -6.3083    6.4752 C   0  0  0  0  0  0  0  0  0  0  0  0
    2.2622   -6.4925    6.2234 C   0  0  0  0  0  0  0  0  0  0  0  0
    3.2207   -6.0862    7.1430 C   0  0  0  0  0  0  0  0  0  0  0  0
    4.9575   -6.2568    6.8330 S   0  0  0  0  0  0  0  0  0  0  0  0
    5.0799   -5.4085    5.2187 C   0  0  0  0  0  0  0  0  0  0  0  0
    4.6254   -3.9659    5.3022 C   0  0  0  0  0  0  0  0  0  0  0  0
    2.7811   -5.5293    8.3398 C   0  0  0  0  0  0  0  0  0  0  0  0
    3.6761   -5.1378    9.2651 F   0  0  0  0  0  0  0  0  0  0  0  0
    1.4419   -5.3282    8.5990 C   0  0  0  0  0  0  0  0  0  0  0  0
   -1.6933   -4.7708    6.9062 C   0  0  0  0  0  0  0  0  0  0  0  0
   -2.9885   -4.2541    7.1532 C   0  0  0  0  0  0  0  0  0  0  0  0
   -3.5703   -4.3659    8.4252 C   0  0  0  0  0  0  0  0  0  0  0  0
   -4.8737   -3.7439    8.6923 C   0  0  0  0  0  0  0  0  0  0  0  0
   -5.9741   -3.9943    7.8728 C   0  0  0  0  0  0  0  0  0  0  0  0
   -7.1502   -3.2967    8.0439 C   0  0  0  0  0  0  0  0  0  0  0  0
   -7.2818   -2.3335    9.0424 C   0  0  0  0  0  0  0  0  0  0  0  0
   -8.8195   -1.4626    9.1346 S   0  0  0  0  0  0  0  0  0  0  0  0
   -8.3247    0.2622    9.5071 C   0  0  0  0  0  0  0  0  0  0  0  0
   -7.3820    0.8292    8.4651 C   0  0  0  0  0  0  0  0  0  0  0  0
   -6.2049   -2.1561    9.9057 C   0  0  0  0  0  0  0  0  0  0  0  0
   -5.0138   -2.8330    9.7332 C   0  0  0  0  0  0  0  0  0  0  0  0
   -6.2822   -1.2905   10.9391 F   0  0  0  0  0  0  0  0  0  0  0  0
   -2.8294   -5.0340    9.3877 C   0  0  0  0  0  0  0  0  0  0  0  0
   -3.3555   -5.3794   11.0141 S   0  0  0  0  0  0  0  0  0  0  0  0
   -3.5231   -3.5933    6.0191 C   0  0  0  0  0  0  0  0  0  0  0  0
   -2.7035   -3.6221    4.9320 C   0  0  0  0  0  0  0  0  0  0  0  0
   -1.1996   -4.4546    5.2609 S   0  0  0  0  0  0  0  0  0  0  0  0
   -2.9797   -3.0504    3.6530 C   0  0  0  0  0  0  0  0  0  0  0  0
   -3.9659   -2.1559    3.3640 C   0  0  0  0  0  0  0  0  0  0  0  0
   -3.9813   -1.7451    2.0087 C   0  0  0  0  0  0  0  0  0  0  0  0
   -4.8031   -0.7683    1.4241 C   0  0  0  0  0  0  0  0  0  0  0  0
   -5.8097   -0.0687    2.2325 C   0  0  0  0  0  0  0  0  0  0  0  0
   -5.4669    0.5436    3.4375 C   0  0  0  0  0  0  0  0  0  0  0  0
   -6.4383    1.0876    4.2498 C   0  0  0  0  0  0  0  0  0  0  0  0
   -7.7837    1.0527    3.8900 C   0  0  0  0  0  0  0  0  0  0  0  0
   -8.9526    1.7424    5.0271 S   0  0  0  0  0  0  0  0  0  0  0  0
  -10.3339    0.5385    5.0036 C   0  0  0  0  0  0  0  0  0  0  0  0
   -9.8865   -0.8572    5.3890 C   0  0  0  0  0  0  0  0  0  0  0  0
   -8.1017    0.5106    2.6485 C   0  0  0  0  0  0  0  0  0  0  0  0
   -9.3777    0.5006    2.2065 F   0  0  0  0  0  0  0  0  0  0  0  0
   -7.1412   -0.0538    1.8328 C   0  0  0  0  0  0  0  0  0  0  0  0
   -4.5979   -0.5145    0.0797 C   0  0  0  0  0  0  0  0  0  0  0  0
   -3.6576   -1.2258   -0.7121 C   0  0  0  0  0  0  0  0  0  0  0  0
   -2.8286   -2.2030   -0.1267 C   0  0  0  0  0  0  0  0  0  0  0  0
   -1.7892   -2.9194   -0.8766 C   0  0  0  0  0  0  0  0  0  0  0  0
   -1.5757   -4.2833   -0.6778 C   0  0  0  0  0  0  0  0  0  0  0  0
   -0.5539   -4.9591   -1.3165 C   0  0  0  0  0  0  0  0  0  0  0  0
    0.2865   -4.3001   -2.2057 C   0  0  0  0  0  0  0  0  0  0  0  0
    1.6301   -5.0044   -3.0971 S   0  0  0  0  0  0  0  0  0  0  0  0
    1.9105   -6.6195   -2.2945 C   0  0  0  0  0  0  0  0  0  0  0  0
    2.5279   -6.4674   -0.9185 C   0  0  0  0  0  0  0  0  0  0  0  0
    0.0276   -2.9494   -2.4399 C   0  0  0  0  0  0  0  0  0  0  0  0
   -0.9623   -2.2560   -1.7845 C   0  0  0  0  0  0  0  0  0  0  0  0
    0.7814   -2.2999   -3.3502 F   0  0  0  0  0  0  0  0  0  0  0  0
   -3.0061   -2.4181    1.2342 C   0  0  0  0  0  0  0  0  0  0  0  0
   -2.0408   -3.4718    2.2389 S   0  0  0  0  0  0  0  0  0  0  0  0
   -3.6365   -0.7391   -2.0408 C   0  0  0  0  0  0  0  0  0  0  0  0
   -4.4196    0.3628   -2.2374 C   0  0  0  0  0  0  0  0  0  0  0  0
   -5.3518    0.7749   -0.8194 S   0  0  0  0  0  0  0  0  0  0  0  0
   -4.2809    1.2464   -3.3535 C   0  0  0  0  0  0  0  0  0  0  0  0
   -3.7175    0.9467   -4.5581 C   0  0  0  0  0  0  0  0  0  0  0  0
   -3.2409    2.0827   -5.2540 C   0  0  0  0  0  0  0  0  0  0  0  0
   -2.4127    2.0701   -6.3888 C   0  0  0  0  0  0  0  0  0  0  0  0
   -2.1865    0.8274   -7.1388 C   0  0  0  0  0  0  0  0  0  0  0  0
   -3.2601    0.1203   -7.6706 C   0  0  0  0  0  0  0  0  0  0  0  0
   -3.0638   -1.0440   -8.3886 C   0  0  0  0  0  0  0  0  0  0  0  0
   -1.7834   -1.5440   -8.5960 C   0  0  0  0  0  0  0  0  0  0  0  0
   -1.3932   -3.0205   -9.4762 S   0  0  0  0  0  0  0  0  0  0  0  0
   -2.9009   -3.3721  -10.4447 C   0  0  0  0  0  0  0  0  0  0  0  0
   -3.1274   -2.3552  -11.5470 C   0  0  0  0  0  0  0  0  0  0  0  0
   -0.7183   -0.8386   -8.0330 C   0  0  0  0  0  0  0  0  0  0  0  0
    0.5347   -1.3074   -8.1926 F   0  0  0  0  0  0  0  0  0  0  0  0
   -0.9007    0.3240   -7.3193 C   0  0  0  0  0  0  0  0  0  0  0  0
   -1.7374    3.2427   -6.6631 C   0  0  0  0  0  0  0  0  0  0  0  0
   -1.9187    4.4376   -5.9219 C   0  0  0  0  0  0  0  0  0  0  0  0
   -2.8694    4.4883   -4.8838 C   0  0  0  0  0  0  0  0  0  0  0  0
   -3.0963    5.7451   -4.1616 C   0  0  0  0  0  0  0  0  0  0  0  0
   -3.0721    5.8198   -2.7700 C   0  0  0  0  0  0  0  0  0  0  0  0
   -3.2838    7.0219   -2.1285 C   0  0  0  0  0  0  0  0  0  0  0  0
   -3.5196    8.1944   -2.8416 C   0  0  0  0  0  0  0  0  0  0  0  0
   -3.7359    9.6925   -1.9222 S   0  0  0  0  0  0  0  0  0  0  0  0
   -5.1615   10.4907   -2.7498 C   0  0  0  0  0  0  0  0  0  0  0  0
   -6.3919    9.6063   -2.7319 C   0  0  0  0  0  0  0  0  0  0  0  0
   -3.5096    8.1123   -4.2305 C   0  0  0  0  0  0  0  0  0  0  0  0
   -3.3137    6.9149   -4.8861 C   0  0  0  0  0  0  0  0  0  0  0  0
   -3.6867    9.2169   -4.9908 F   0  0  0  0  0  0  0  0  0  0  0  0
   -3.4676    3.2844   -4.5386 C   0  0  0  0  0  0  0  0  0  0  0  0
   -4.4121    2.9780   -3.1035 S   0  0  0  0  0  0  0  0  0  0  0  0
   -0.8913    5.3809   -6.1750 C   0  0  0  0  0  0  0  0  0  0  0  0
    0.0628    4.9284   -7.0500 C   0  0  0  0  0  0  0  0  0  0  0  0
   -0.4138    3.4012   -7.7902 S   0  0  0  0  0  0  0  0  0  0  0  0
    1.4330    5.2914   -7.1147 C   0  0  0  0  0  0  0  0  0  0  0  0
    2.5467    4.0188   -7.5067 S   0  0  0  0  0  0  0  0  0  0  0  0
    3.8504    4.7601   -6.6202 C   0  0  0  0  0  0  0  0  0  0  0  0
    3.4844    6.0579   -6.2312 C   0  0  0  0  0  0  0  0  0  0  0  0
    2.1152    6.3596   -6.5147 C   0  0  0  0  0  0  0  0  0  0  0  0
    1.6060    7.6264   -6.1696 C   0  0  0  0  0  0  0  0  0  0  0  0
    2.4019    8.5607   -5.5712 C   0  0  0  0  0  0  0  0  0  0  0  0
    1.8936    9.9183   -5.2094 C   0  0  0  0  0  0  0  0  0  0  0  0
    3.7713    8.2543   -5.2967 C   0  0  0  0  0  0  0  0  0  0  0  0
    4.4694    9.2699   -4.7213 O   0  0  0  0  0  0  0  0  0  0  0  0
    5.8307    9.0727   -4.4316 C   0  0  0  0  0  0  0  0  0  0  0  0
    4.2991    7.0305   -5.6223 C   0  0  0  0  0  0  0  0  0  0  0  0
    4.8421    3.8461   -6.1991 C   0  0  0  0  0  0  0  0  0  0  0  0
    5.5884    3.8961   -5.0618 C   0  0  0  0  0  0  0  0  0  0  0  0
    6.1510    2.7463   -4.4519 C   0  0  0  0  0  0  0  0  0  0  0  0
    7.4546    2.9305   -3.3194 S   0  0  0  0  0  0  0  0  0  0  0  0
    7.4434    1.2499   -2.8774 C   0  0  0  0  0  0  0  0  0  0  0  0
    6.4961    0.5596   -3.6375 C   0  0  0  0  0  0  0  0  0  0  0  0
    5.7335    1.4053   -4.4988 C   0  0  0  0  0  0  0  0  0  0  0  0
    4.6310    0.8397   -5.1782 C   0  0  0  0  0  0  0  0  0  0  0  0
    4.3565   -0.4950   -5.1017 C   0  0  0  0  0  0  0  0  0  0  0  0
    3.1863   -1.1054   -5.7995 C   0  0  0  0  0  0  0  0  0  0  0  0
    5.2113   -1.3509   -4.3362 C   0  0  0  0  0  0  0  0  0  0  0  0
    4.8604   -2.6627   -4.3560 O   0  0  0  0  0  0  0  0  0  0  0  0
    5.5486   -3.5603   -3.5253 C   0  0  0  0  0  0  0  0  0  0  0  0
    6.2583   -0.8320   -3.6230 C   0  0  0  0  0  0  0  0  0  0  0  0
    8.3615    0.7839   -1.8906 C   0  0  0  0  0  0  0  0  0  0  0  0
    8.1667   -0.1714   -0.9519 C   0  0  0  0  0  0  0  0  0  0  0  0
    6.9479   -0.8090   -0.5570 C   0  0  0  0  0  0  0  0  0  0  0  0
    6.8547   -1.9547    0.1842 C   0  0  0  0  0  0  0  0  0  0  0  0
    5.5267   -2.3369    0.5011 C   0  0  0  0  0  0  0  0  0  0  0  0
    5.0885   -3.4528    1.2338 C   0  0  0  0  0  0  0  0  0  0  0  0
    6.0392   -4.4051    1.8200 C   0  0  0  0  0  0  0  0  0  0  0  0
    7.1112   -3.9752    2.6020 C   0  0  0  0  0  0  0  0  0  0  0  0
    7.9866   -4.8847    3.1535 C   0  0  0  0  0  0  0  0  0  0  0  0
    7.8493   -6.2578    2.9384 C   0  0  0  0  0  0  0  0  0  0  0  0
    9.0741   -7.2936    3.6758 S   0  0  0  0  0  0  0  0  0  0  0  0
    8.2322   -8.8769    4.0431 C   0  0  0  0  0  0  0  0  0  0  0  0
    7.0349   -8.7018    4.9543 C   0  0  0  0  0  0  0  0  0  0  0  0
    6.7926   -6.6678    2.1314 C   0  0  0  0  0  0  0  0  0  0  0  0
    6.6091   -7.9733    1.8279 F   0  0  0  0  0  0  0  0  0  0  0  0
    5.8909   -5.7698    1.5976 C   0  0  0  0  0  0  0  0  0  0  0  0
    3.7156   -3.6074    1.3693 C   0  0  0  0  0  0  0  0  0  0  0  0
    2.7682   -2.7251    0.7955 C   0  0  0  0  0  0  0  0  0  0  0  0
    3.2053   -1.6159    0.0551 C   0  0  0  0  0  0  0  0  0  0  0  0
    2.2729   -0.7002   -0.6184 C   0  0  0  0  0  0  0  0  0  0  0  0
    2.4597   -0.4069   -1.9677 C   0  0  0  0  0  0  0  0  0  0  0  0
    1.5796    0.4135   -2.6427 C   0  0  0  0  0  0  0  0  0  0  0  0
    0.5002    0.9860   -1.9855 C   0  0  0  0  0  0  0  0  0  0  0  0
   -0.6766    1.9929   -2.8761 S   0  0  0  0  0  0  0  0  0  0  0  0
    0.2599    3.5604   -3.0133 C   0  0  0  0  0  0  0  0  0  0  0  0
    1.4376    3.4888   -3.9639 C   0  0  0  0  0  0  0  0  0  0  0  0
    0.3258    0.6995   -0.6362 C   0  0  0  0  0  0  0  0  0  0  0  0
    1.1924   -0.1307    0.0494 C   0  0  0  0  0  0  0  0  0  0  0  0
   -0.7201    1.2236    0.0345 F   0  0  0  0  0  0  0  0  0  0  0  0
    4.5782   -1.4433   -0.0563 C   0  0  0  0  0  0  0  0  0  0  0  0
    5.3641   -0.1194   -0.8740 S   0  0  0  0  0  0  0  0  0  0  0  0
    1.4307   -3.1386    1.0763 C   0  0  0  0  0  0  0  0  0  0  0  0
    1.3682   -4.2375    1.8532 C   0  0  0  0  0  0  0  0  0  0  0  0
    2.9215   -4.8681    2.2831 S   0  0  0  0  0  0  0  0  0  0  0  0
   -1.7445   -6.6705   12.2980 H   0  0  0  0  0  0  0  0  0  0  0  0
   -0.0759   -6.7392   10.3051 H   0  0  0  0  0  0  0  0  0  0  0  0
    0.1942   -6.6509    5.7521 H   0  0  0  0  0  0  0  0  0  0  0  0
    2.5757   -6.9517    5.2986 H   0  0  0  0  0  0  0  0  0  0  0  0
    4.5078   -5.9645    4.4769 H   0  0  0  0  0  0  0  0  0  0  0  0
    6.1388   -5.4678    4.9720 H   0  0  0  0  0  0  0  0  0  0  0  0
    4.8146   -3.4682    4.3536 H   0  0  0  0  0  0  0  0  0  0  0  0
    5.1682   -3.4430    6.0864 H   0  0  0  0  0  0  0  0  0  0  0  0
    3.5596   -3.9091    5.5165 H   0  0  0  0  0  0  0  0  0  0  0  0
    1.1556   -4.8360    9.5152 H   0  0  0  0  0  0  0  0  0  0  0  0
   -5.9008   -4.7392    7.0949 H   0  0  0  0  0  0  0  0  0  0  0  0
   -7.9922   -3.4751    7.3927 H   0  0  0  0  0  0  0  0  0  0  0  0
   -9.2740    0.7978    9.5093 H   0  0  0  0  0  0  0  0  0  0  0  0
   -7.8973    0.2955   10.5068 H   0  0  0  0  0  0  0  0  0  0  0  0
   -7.1480    1.8623    8.7138 H   0  0  0  0  0  0  0  0  0  0  0  0
   -7.8381    0.8085    7.4778 H   0  0  0  0  0  0  0  0  0  0  0  0
   -6.4516    0.2643    8.4327 H   0  0  0  0  0  0  0  0  0  0  0  0
   -4.1973   -2.6269   10.4075 H   0  0  0  0  0  0  0  0  0  0  0  0
   -4.4844   -3.1149    6.0159 H   0  0  0  0  0  0  0  0  0  0  0  0
   -4.6559   -1.7852    4.0987 H   0  0  0  0  0  0  0  0  0  0  0  0
   -4.4303    0.5921    3.7342 H   0  0  0  0  0  0  0  0  0  0  0  0
   -6.1726    1.5428    5.1916 H   0  0  0  0  0  0  0  0  0  0  0  0
  -11.0315    0.9434    5.7365 H   0  0  0  0  0  0  0  0  0  0  0  0
  -10.8000    0.5609    4.0210 H   0  0  0  0  0  0  0  0  0  0  0  0
  -10.7444   -1.5264    5.3851 H   0  0  0  0  0  0  0  0  0  0  0  0
   -9.1501   -1.2378    4.6826 H   0  0  0  0  0  0  0  0  0  0  0  0
   -9.4502   -0.8637    6.3855 H   0  0  0  0  0  0  0  0  0  0  0  0
   -7.4459   -0.4912    0.8947 H   0  0  0  0  0  0  0  0  0  0  0  0
   -2.2311   -4.8368   -0.0236 H   0  0  0  0  0  0  0  0  0  0  0  0
   -0.4284   -6.0120   -1.1230 H   0  0  0  0  0  0  0  0  0  0  0  0
    2.5939   -7.1283   -2.9746 H   0  0  0  0  0  0  0  0  0  0  0  0
    0.9712   -7.1700   -2.2724 H   0  0  0  0  0  0  0  0  0  0  0  0
    1.8509   -5.9435   -0.2475 H   0  0  0  0  0  0  0  0  0  0  0  0
    2.7499   -7.4460   -0.4968 H   0  0  0  0  0  0  0  0  0  0  0  0
    3.4517   -5.8959   -0.9873 H   0  0  0  0  0  0  0  0  0  0  0  0
   -1.0611   -1.1993   -1.9682 H   0  0  0  0  0  0  0  0  0  0  0  0
   -3.0190   -1.1438   -2.8194 H   0  0  0  0  0  0  0  0  0  0  0  0
   -3.5623   -0.0580   -4.9069 H   0  0  0  0  0  0  0  0  0  0  0  0
   -4.2635    0.4945   -7.5308 H   0  0  0  0  0  0  0  0  0  0  0  0
   -3.9228   -1.5631   -8.7819 H   0  0  0  0  0  0  0  0  0  0  0  0
   -2.7082   -4.3603  -10.8625 H   0  0  0  0  0  0  0  0  0  0  0  0
   -3.7478   -3.4449   -9.7634 H   0  0  0  0  0  0  0  0  0  0  0  0
   -2.2709   -2.3319  -12.2165 H   0  0  0  0  0  0  0  0  0  0  0  0
   -4.0121   -2.6224  -12.1219 H   0  0  0  0  0  0  0  0  0  0  0  0
   -3.2675   -1.3576  -11.1358 H   0  0  0  0  0  0  0  0  0  0  0  0
   -0.0421    0.8185   -6.8950 H   0  0  0  0  0  0  0  0  0  0  0  0
   -2.8734    4.9351   -2.1861 H   0  0  0  0  0  0  0  0  0  0  0  0
   -3.2672    7.0739   -1.0511 H   0  0  0  0  0  0  0  0  0  0  0  0
   -4.8734   10.7693   -3.7610 H   0  0  0  0  0  0  0  0  0  0  0  0
   -5.3179   11.3959   -2.1632 H   0  0  0  0  0  0  0  0  0  0  0  0
   -6.6458    9.3256   -1.7119 H   0  0  0  0  0  0  0  0  0  0  0  0
   -7.2337   10.1405   -3.1680 H   0  0  0  0  0  0  0  0  0  0  0  0
   -6.2250    8.6976   -3.3078 H   0  0  0  0  0  0  0  0  0  0  0  0
   -3.3344    6.9016   -5.9652 H   0  0  0  0  0  0  0  0  0  0  0  0
   -0.7796    6.2815   -5.5998 H   0  0  0  0  0  0  0  0  0  0  0  0
    0.5848    7.8711   -6.4179 H   0  0  0  0  0  0  0  0  0  0  0  0
    0.8456   10.0243   -5.4757 H   0  0  0  0  0  0  0  0  0  0  0  0
    2.4742   10.6835   -5.7221 H   0  0  0  0  0  0  0  0  0  0  0  0
    2.0106   10.0873   -4.1400 H   0  0  0  0  0  0  0  0  0  0  0  0
    6.1741   10.0027   -3.9815 H   0  0  0  0  0  0  0  0  0  0  0  0
    6.4105    8.8743   -5.3389 H   0  0  0  0  0  0  0  0  0  0  0  0
    5.9761    8.2521   -3.7214 H   0  0  0  0  0  0  0  0  0  0  0  0
    5.3390    6.8029   -5.4587 H   0  0  0  0  0  0  0  0  0  0  0  0
    4.8584    2.9256   -6.7657 H   0  0  0  0  0  0  0  0  0  0  0  0
    5.7114    4.8269   -4.5265 H   0  0  0  0  0  0  0  0  0  0  0  0
    3.9664    1.4717   -5.7440 H   0  0  0  0  0  0  0  0  0  0  0  0
    2.6281   -0.3582   -6.3560 H   0  0  0  0  0  0  0  0  0  0  0  0
    2.5267   -1.5910   -5.0822 H   0  0  0  0  0  0  0  0  0  0  0  0
    3.5229   -1.8762   -6.4902 H   0  0  0  0  0  0  0  0  0  0  0  0
    5.0456   -4.5177   -3.6521 H   0  0  0  0  0  0  0  0  0  0  0  0
    5.4942   -3.2594   -2.4727 H   0  0  0  0  0  0  0  0  0  0  0  0
    6.5997   -3.6598   -3.8161 H   0  0  0  0  0  0  0  0  0  0  0  0
    6.9090   -1.4583   -3.0351 H   0  0  0  0  0  0  0  0  0  0  0  0
    9.3246    1.2816   -1.8926 H   0  0  0  0  0  0  0  0  0  0  0  0
    9.0250   -0.4762   -0.3655 H   0  0  0  0  0  0  0  0  0  0  0  0
    7.7175   -2.5308    0.4680 H   0  0  0  0  0  0  0  0  0  0  0  0
    7.2359   -2.9226    2.8058 H   0  0  0  0  0  0  0  0  0  0  0  0
    8.8038   -4.5485    3.7729 H   0  0  0  0  0  0  0  0  0  0  0  0
    9.0161   -9.4552    4.5331 H   0  0  0  0  0  0  0  0  0  0  0  0
    7.9671   -9.3625    3.1064 H   0  0  0  0  0  0  0  0  0  0  0  0
    6.6518   -9.6784    5.2424 H   0  0  0  0  0  0  0  0  0  0  0  0
    7.3077   -8.1566    5.8553 H   0  0  0  0  0  0  0  0  0  0  0  0
    6.2379   -8.1591    4.4518 H   0  0  0  0  0  0  0  0  0  0  0  0
    5.0919   -6.1496    0.9802 H   0  0  0  0  0  0  0  0  0  0  0  0
    3.2713   -0.8626   -2.5111 H   0  0  0  0  0  0  0  0  0  0  0  0
    1.7083    0.5830   -3.6989 H   0  0  0  0  0  0  0  0  0  0  0  0
   -0.4849    4.2704   -3.3722 H   0  0  0  0  0  0  0  0  0  0  0  0
    0.5689    3.8439   -2.0074 H   0  0  0  0  0  0  0  0  0  0  0  0
    1.8329    4.4901   -4.1282 H   0  0  0  0  0  0  0  0  0  0  0  0
    1.1242    3.0805   -4.9224 H   0  0  0  0  0  0  0  0  0  0  0  0
    2.2351    2.8685   -3.5602 H   0  0  0  0  0  0  0  0  0  0  0  0
    1.0243   -0.3130    1.0996 H   0  0  0  0  0  0  0  0  0  0  0  0
    0.5605   -2.6334    0.7000 H   0  0  0  0  0  0  0  0  0  0  0  0
    0.4938   -4.7384    2.2190 H   0  0  0  0  0  0  0  0  0  0  0  0
  1  2  2  0  0  0  0
  2  3  1  0  0  0  0
  3  4  2  0  0  0  0
  4  5  1  0  0  0  0
  5  6  2  0  0  0  0
  6  7  1  0  0  0  0
  7  8  2  0  0  0  0
  8  9  1  0  0  0  0
  9 10  1  0  0  0  0
 10 11  1  0  0  0  0
  8 12  1  0  0  0  0
 12 13  1  0  0  0  0
 12 14  2  0  0  0  0
  4 15  1  0  0  0  0
 15 16  2  0  0  0  0
 16 17  1  0  0  0  0
 17 18  1  0  0  0  0
 18 19  2  0  0  0  0
 19 20  1  0  0  0  0
 20 21  2  0  0  0  0
 21 22  1  0  0  0  0
 22 23  1  0  0  0  0
 23 24  1  0  0  0  0
 21 25  1  0  0  0  0
 25 26  2  0  0  0  0
 25 27  1  0  0  0  0
 17 28  2  0  0  0  0
 28 29  1  0  0  0  0
 16 30  1  0  0  0  0
 30 31  2  0  0  0  0
 31 32  1  0  0  0  0
 31 33  1  0  0  0  0
 33 34  2  0  0  0  0
 34 35  1  0  0  0  0
 35 36  2  0  0  0  0
 36 37  1  0  0  0  0
 37 38  2  0  0  0  0
 38 39  1  0  0  0  0
 39 40  2  0  0  0  0
 40 41  1  0  0  0  0
 41 42  1  0  0  0  0
 42 43  1  0  0  0  0
 40 44  1  0  0  0  0
 44 45  1  0  0  0  0
 44 46  2  0  0  0  0
 36 47  1  0  0  0  0
 47 48  2  0  0  0  0
 48 49  1  0  0  0  0
 49 50  1  0  0  0  0
 50 51  2  0  0  0  0
 51 52  1  0  0  0  0
 52 53  2  0  0  0  0
 53 54  1  0  0  0  0
 54 55  1  0  0  0  0
 55 56  1  0  0  0  0
 53 57  1  0  0  0  0
 57 58  2  0  0  0  0
 57 59  1  0  0  0  0
 49 60  2  0  0  0  0
 60 61  1  0  0  0  0
 48 62  1  0  0  0  0
 62 63  2  0  0  0  0
 63 64  1  0  0  0  0
 63 65  1  0  0  0  0
 65 66  2  0  0  0  0
 66 67  1  0  0  0  0
 67 68  2  0  0  0  0
 68 69  1  0  0  0  0
 69 70  2  0  0  0  0
 70 71  1  0  0  0  0
 71 72  2  0  0  0  0
 72 73  1  0  0  0  0
 73 74  1  0  0  0  0
 74 75  1  0  0  0  0
 72 76  1  0  0  0  0
 76 77  1  0  0  0  0
 76 78  2  0  0  0  0
 68 79  1  0  0  0  0
 79 80  2  0  0  0  0
 80 81  1  0  0  0  0
 81 82  1  0  0  0  0
 82 83  2  0  0  0  0
 83 84  1  0  0  0  0
 84 85  2  0  0  0  0
 85 86  1  0  0  0  0
 86 87  1  0  0  0  0
 87 88  1  0  0  0  0
 85 89  1  0  0  0  0
 89 90  2  0  0  0  0
 89 91  1  0  0  0  0
 81 92  2  0  0  0  0
 92 93  1  0  0  0  0
 80 94  1  0  0  0  0
 94 95  2  0  0  0  0
 95 96  1  0  0  0  0
 95 97  1  0  0  0  0
 97 98  1  0  0  0  0
 98 99  1  0  0  0  0
 99100  2  0  0  0  0
100101  1  0  0  0  0
101102  1  0  0  0  0
102103  2  0  0  0  0
103104  1  0  0  0  0
103105  1  0  0  0  0
105106  1  0  0  0  0
106107  1  0  0  0  0
105108  2  0  0  0  0
 99109  1  0  0  0  0
109110  2  0  0  0  0
110111  1  0  0  0  0
111112  1  0  0  0  0
112113  1  0  0  0  0
113114  2  0  0  0  0
114115  1  0  0  0  0
115116  1  0  0  0  0
116117  2  0  0  0  0
117118  1  0  0  0  0
117119  1  0  0  0  0
119120  1  0  0  0  0
120121  1  0  0  0  0
119122  2  0  0  0  0
113123  1  0  0  0  0
123124  2  0  0  0  0
124125  1  0  0  0  0
125126  2  0  0  0  0
126127  1  0  0  0  0
127128  2  0  0  0  0
128129  1  0  0  0  0
129130  2  0  0  0  0
130131  1  0  0  0  0
131132  2  0  0  0  0
132133  1  0  0  0  0
133134  1  0  0  0  0
134135  1  0  0  0  0
132136  1  0  0  0  0
136137  1  0  0  0  0
136138  2  0  0  0  0
128139  1  0  0  0  0
139140  2  0  0  0  0
140141  1  0  0  0  0
141142  1  0  0  0  0
142143  2  0  0  0  0
143144  1  0  0  0  0
144145  2  0  0  0  0
145146  1  0  0  0  0
146147  1  0  0  0  0
147148  1  0  0  0  0
145149  1  0  0  0  0
149150  2  0  0  0  0
149151  1  0  0  0  0
141152  2  0  0  0  0
152153  1  0  0  0  0
140154  1  0  0  0  0
154155  2  0  0  0  0
155156  1  0  0  0  0
 29  1  1  0  0  0  0
 61 33  1  0  0  0  0
 93 65  1  0  0  0  0
101 97  2  0  0  0  0
115111  2  0  0  0  0
153125  1  0  0  0  0
 28  3  1  0  0  0  0
 60 35  1  0  0  0  0
 92 67  1  0  0  0  0
108100  1  0  0  0  0
122114  1  0  0  0  0
152127  1  0  0  0  0
 14  5  1  0  0  0  0
 32 15  1  0  0  0  0
 46 37  1  0  0  0  0
 64 47  1  0  0  0  0
 78 69  1  0  0  0  0
 96 79  1  0  0  0  0
138129  1  0  0  0  0
156139  1  0  0  0  0
 26 18  1  0  0  0  0
 58 50  1  0  0  0  0
 90 82  1  0  0  0  0
150142  1  0  0  0  0
  1157  1  0  0  0  0
  2158  1  0  0  0  0
  6159  1  0  0  0  0
  7160  1  0  0  0  0
 10161  1  0  0  0  0
 10162  1  0  0  0  0
 11163  1  0  0  0  0
 11164  1  0  0  0  0
 11165  1  0  0  0  0
 14166  1  0  0  0  0
 19167  1  0  0  0  0
 20168  1  0  0  0  0
 23169  1  0  0  0  0
 23170  1  0  0  0  0
 24171  1  0  0  0  0
 24172  1  0  0  0  0
 24173  1  0  0  0  0
 26174  1  0  0  0  0
 30175  1  0  0  0  0
 34176  1  0  0  0  0
 38177  1  0  0  0  0
 39178  1  0  0  0  0
 42179  1  0  0  0  0
 42180  1  0  0  0  0
 43181  1  0  0  0  0
 43182  1  0  0  0  0
 43183  1  0  0  0  0
 46184  1  0  0  0  0
 51185  1  0  0  0  0
 52186  1  0  0  0  0
 55187  1  0  0  0  0
 55188  1  0  0  0  0
 56189  1  0  0  0  0
 56190  1  0  0  0  0
 56191  1  0  0  0  0
 58192  1  0  0  0  0
 62193  1  0  0  0  0
 66194  1  0  0  0  0
 70195  1  0  0  0  0
 71196  1  0  0  0  0
 74197  1  0  0  0  0
 74198  1  0  0  0  0
 75199  1  0  0  0  0
 75200  1  0  0  0  0
 75201  1  0  0  0  0
 78202  1  0  0  0  0
 83203  1  0  0  0  0
 84204  1  0  0  0  0
 87205  1  0  0  0  0
 87206  1  0  0  0  0
 88207  1  0  0  0  0
 88208  1  0  0  0  0
 88209  1  0  0  0  0
 90210  1  0  0  0  0
 94211  1  0  0  0  0
102212  1  0  0  0  0
104213  1  0  0  0  0
104214  1  0  0  0  0
104215  1  0  0  0  0
107216  1  0  0  0  0
107217  1  0  0  0  0
107218  1  0  0  0  0
108219  1  0  0  0  0
109220  1  0  0  0  0
110221  1  0  0  0  0
116222  1  0  0  0  0
118223  1  0  0  0  0
118224  1  0  0  0  0
118225  1  0  0  0  0
121226  1  0  0  0  0
121227  1  0  0  0  0
121228  1  0  0  0  0
122229  1  0  0  0  0
123230  1  0  0  0  0
124231  1  0  0  0  0
126232  1  0  0  0  0
130233  1  0  0  0  0
131234  1  0  0  0  0
134235  1  0  0  0  0
134236  1  0  0  0  0
135237  1  0  0  0  0
135238  1  0  0  0  0
135239  1  0  0  0  0
138240  1  0  0  0  0
143241  1  0  0  0  0
144242  1  0  0  0  0
147243  1  0  0  0  0
147244  1  0  0  0  0
148245  1  0  0  0  0
148246  1  0  0  0  0
148247  1  0  0  0  0
150248  1  0  0  0  0
154249  1  0  0  0  0
155250  1  0  0  0  0
M  END
