
  xtb     03022213193D
 energy: -295.874298327988 gnorm: 0.000272533706 xtb: 6.4.1 (unknown)
201207  0     0  0            999 V2000
    0.8421    0.7808    7.9404 C   0  0  0  0  0  0  0  0  0  0  0  0
    1.4824    1.9781    7.6732 C   0  0  0  0  0  0  0  0  0  0  0  0
    2.2757    2.6382    8.5833 O   0  0  0  0  0  0  0  0  0  0  0  0
    2.5880    2.0365    9.8217 C   0  0  0  0  0  0  0  0  0  0  0  0
    3.6263    0.9251    9.6961 C   0  0  0  0  0  0  0  0  0  0  0  0
    1.3100    2.5792    6.4129 C   0  0  0  0  0  0  0  0  0  0  0  0
    1.8644    3.7476    5.9694 O   0  0  0  0  0  0  0  0  0  0  0  0
    2.2088    4.7936    6.8561 C   0  0  0  0  0  0  0  0  0  0  0  0
    1.0054    5.3592    7.6032 C   0  0  0  0  0  0  0  0  0  0  0  0
    0.5464    1.8943    5.4526 C   0  0  0  0  0  0  0  0  0  0  0  0
    0.4234    2.4384    4.1892 O   0  0  0  0  0  0  0  0  0  0  0  0
   -0.5447    3.4723    4.0845 C   0  0  0  0  0  0  0  0  0  0  0  0
   -0.5066    4.0214    2.6681 C   0  0  0  0  0  0  0  0  0  0  0  0
   -0.0537    0.6801    5.7251 C   0  0  0  0  0  0  0  0  0  0  0  0
    0.0733    0.1062    6.9866 C   0  0  0  0  0  0  0  0  0  0  0  0
   -0.6408   -1.0759    7.4195 C   0  0  0  0  0  0  0  0  0  0  0  0
   -1.2181   -2.0904    6.7412 C   0  0  0  0  0  0  0  0  0  0  0  0
   -1.1716   -2.5182    5.3817 C   0  0  0  0  0  0  0  0  0  0  0  0
    0.1320   -2.2300    4.2748 S   0  0  0  0  0  0  0  0  0  0  0  0
   -0.5216   -3.2913    3.0711 C   0  0  0  0  0  0  0  0  0  0  0  0
   -1.7489   -3.8143    3.4985 C   0  0  0  0  0  0  0  0  0  0  0  0
   -2.1032   -3.3978    4.8144 C   0  0  0  0  0  0  0  0  0  0  0  0
   -3.3120   -3.8601    5.3785 C   0  0  0  0  0  0  0  0  0  0  0  0
   -4.1414   -4.6857    4.6795 C   0  0  0  0  0  0  0  0  0  0  0  0
   -5.4330   -5.1820    5.2472 C   0  0  0  0  0  0  0  0  0  0  0  0
   -3.7867   -5.0854    3.3535 C   0  0  0  0  0  0  0  0  0  0  0  0
   -4.7030   -5.8981    2.7474 O   0  0  0  0  0  0  0  0  0  0  0  0
   -4.4459   -6.3338    1.4379 C   0  0  0  0  0  0  0  0  0  0  0  0
   -2.6195   -4.6616    2.7792 C   0  0  0  0  0  0  0  0  0  0  0  0
    0.1718   -3.7077    1.8963 C   0  0  0  0  0  0  0  0  0  0  0  0
    1.3481   -3.2864    1.3984 C   0  0  0  0  0  0  0  0  0  0  0  0
    2.1340   -2.1480    1.8552 C   0  0  0  0  0  0  0  0  0  0  0  0
    3.5013   -2.3451    2.0982 C   0  0  0  0  0  0  0  0  0  0  0  0
    3.9201   -3.6409    1.9433 O   0  0  0  0  0  0  0  0  0  0  0  0
    5.2011   -3.9203    1.4076 C   0  0  0  0  0  0  0  0  0  0  0  0
    5.4056   -3.3050    0.0266 C   0  0  0  0  0  0  0  0  0  0  0  0
    4.3016   -1.2825    2.5467 C   0  0  0  0  0  0  0  0  0  0  0  0
    5.6228   -1.5442    2.8085 O   0  0  0  0  0  0  0  0  0  0  0  0
    6.6014   -0.5361    2.6079 C   0  0  0  0  0  0  0  0  0  0  0  0
    7.9185   -1.2225    2.2680 C   0  0  0  0  0  0  0  0  0  0  0  0
    3.6985   -0.0290    2.7485 C   0  0  0  0  0  0  0  0  0  0  0  0
    4.4877    1.0137    3.1907 O   0  0  0  0  0  0  0  0  0  0  0  0
    4.0340    1.7103    4.3404 C   0  0  0  0  0  0  0  0  0  0  0  0
    4.0670    0.8277    5.5836 C   0  0  0  0  0  0  0  0  0  0  0  0
    2.3611    0.1677    2.4451 C   0  0  0  0  0  0  0  0  0  0  0  0
    1.5675   -0.8696    1.9718 C   0  0  0  0  0  0  0  0  0  0  0  0
    0.2287   -0.6185    1.4600 C   0  0  0  0  0  0  0  0  0  0  0  0
   -0.5983    0.3212    1.9254 C   0  0  0  0  0  0  0  0  0  0  0  0
   -1.8902    0.6647    1.3488 C   0  0  0  0  0  0  0  0  0  0  0  0
   -2.9620    0.9226    2.2317 C   0  0  0  0  0  0  0  0  0  0  0  0
   -2.6694    0.7379    3.5524 O   0  0  0  0  0  0  0  0  0  0  0  0
   -3.6697    0.3418    4.4768 C   0  0  0  0  0  0  0  0  0  0  0  0
   -4.4481   -0.8874    4.0271 C   0  0  0  0  0  0  0  0  0  0  0  0
   -4.1926    1.3485    1.7374 C   0  0  0  0  0  0  0  0  0  0  0  0
   -5.2480    1.6534    2.5831 O   0  0  0  0  0  0  0  0  0  0  0  0
   -5.4986    3.0424    2.7240 C   0  0  0  0  0  0  0  0  0  0  0  0
   -6.7192    3.2110    3.6134 C   0  0  0  0  0  0  0  0  0  0  0  0
   -4.3830    1.4578    0.3461 C   0  0  0  0  0  0  0  0  0  0  0  0
   -5.6222    1.8901   -0.0377 O   0  0  0  0  0  0  0  0  0  0  0  0
   -5.9747    1.8729   -1.4036 C   0  0  0  0  0  0  0  0  0  0  0  0
   -6.2115    0.4640   -1.9396 C   0  0  0  0  0  0  0  0  0  0  0  0
   -3.3385    1.1774   -0.5112 C   0  0  0  0  0  0  0  0  0  0  0  0
   -2.0846    0.7913   -0.0321 C   0  0  0  0  0  0  0  0  0  0  0  0
   -0.9878    0.6255   -0.9780 C   0  0  0  0  0  0  0  0  0  0  0  0
   -1.1561    0.2253   -2.2435 C   0  0  0  0  0  0  0  0  0  0  0  0
   -0.1630    0.1963   -3.3121 C   0  0  0  0  0  0  0  0  0  0  0  0
    1.1852   -0.1675   -3.0985 C   0  0  0  0  0  0  0  0  0  0  0  0
    1.4655   -0.5587   -1.8291 O   0  0  0  0  0  0  0  0  0  0  0  0
    2.7843   -0.7122   -1.3330 C   0  0  0  0  0  0  0  0  0  0  0  0
    3.5141    0.6166   -1.1891 C   0  0  0  0  0  0  0  0  0  0  0  0
    2.0705   -0.1882   -4.1803 C   0  0  0  0  0  0  0  0  0  0  0  0
    3.3993   -0.5289   -4.0107 O   0  0  0  0  0  0  0  0  0  0  0  0
    3.8606   -1.6686   -4.7217 C   0  0  0  0  0  0  0  0  0  0  0  0
    5.1910   -1.3531   -5.3878 C   0  0  0  0  0  0  0  0  0  0  0  0
    1.6313    0.1935   -5.4637 C   0  0  0  0  0  0  0  0  0  0  0  0
    2.6047    0.2308   -6.4230 O   0  0  0  0  0  0  0  0  0  0  0  0
    2.2483    0.4320   -7.7729 C   0  0  0  0  0  0  0  0  0  0  0  0
    1.6341   -0.8130   -8.4069 C   0  0  0  0  0  0  0  0  0  0  0  0
    0.3016    0.5006   -5.6705 C   0  0  0  0  0  0  0  0  0  0  0  0
   -0.5977    0.4825   -4.6106 C   0  0  0  0  0  0  0  0  0  0  0  0
   -1.9941    0.8415   -4.8765 C   0  0  0  0  0  0  0  0  0  0  0  0
   -2.7240    0.3904   -5.8998 C   0  0  0  0  0  0  0  0  0  0  0  0
   -2.3170   -0.6097   -6.8897 C   0  0  0  0  0  0  0  0  0  0  0  0
   -2.5910   -0.3547   -8.2407 C   0  0  0  0  0  0  0  0  0  0  0  0
   -3.2573    0.7938   -8.6157 O   0  0  0  0  0  0  0  0  0  0  0  0
   -2.4890    1.9843   -8.5943 C   0  0  0  0  0  0  0  0  0  0  0  0
   -1.3527    1.9730   -9.6102 C   0  0  0  0  0  0  0  0  0  0  0  0
   -2.2307   -1.2559   -9.2453 C   0  0  0  0  0  0  0  0  0  0  0  0
   -2.4583   -0.8821  -10.5441 O   0  0  0  0  0  0  0  0  0  0  0  0
   -3.2500   -1.7488  -11.3401 C   0  0  0  0  0  0  0  0  0  0  0  0
   -4.6522   -1.9314  -10.7704 C   0  0  0  0  0  0  0  0  0  0  0  0
   -1.5968   -2.4610   -8.8888 C   0  0  0  0  0  0  0  0  0  0  0  0
   -1.2422   -3.2956   -9.9087 O   0  0  0  0  0  0  0  0  0  0  0  0
   -0.5192   -4.4728   -9.6128 C   0  0  0  0  0  0  0  0  0  0  0  0
   -0.1932   -5.1542  -10.9327 C   0  0  0  0  0  0  0  0  0  0  0  0
   -1.3602   -2.7243   -7.5497 C   0  0  0  0  0  0  0  0  0  0  0  0
   -1.7064   -1.8226   -6.5457 C   0  0  0  0  0  0  0  0  0  0  0  0
   -1.4799   -2.1825   -5.1481 C   0  0  0  0  0  0  0  0  0  0  0  0
   -0.4637   -2.9074   -4.7010 C   0  0  0  0  0  0  0  0  0  0  0  0
    0.9393    0.3279    8.9145 H   0  0  0  0  0  0  0  0  0  0  0  0
    2.9963    2.8582   10.4182 H   0  0  0  0  0  0  0  0  0  0  0  0
    1.6811    1.6734   10.3205 H   0  0  0  0  0  0  0  0  0  0  0  0
    3.8558    0.5271   10.6808 H   0  0  0  0  0  0  0  0  0  0  0  0
    3.2608    0.1202    9.0635 H   0  0  0  0  0  0  0  0  0  0  0  0
    4.5379    1.3199    9.2542 H   0  0  0  0  0  0  0  0  0  0  0  0
    2.9760    4.4718    7.5653 H   0  0  0  0  0  0  0  0  0  0  0  0
    2.6332    5.5564    6.1960 H   0  0  0  0  0  0  0  0  0  0  0  0
    0.2410    5.6843    6.9003 H   0  0  0  0  0  0  0  0  0  0  0  0
    1.3162    6.2099    8.2034 H   0  0  0  0  0  0  0  0  0  0  0  0
    0.5788    4.6048    8.2594 H   0  0  0  0  0  0  0  0  0  0  0  0
   -0.3206    4.2675    4.8069 H   0  0  0  0  0  0  0  0  0  0  0  0
   -1.5388    3.0604    4.3116 H   0  0  0  0  0  0  0  0  0  0  0  0
   -0.7650    3.2423    1.9561 H   0  0  0  0  0  0  0  0  0  0  0  0
   -1.2151    4.8400    2.5716 H   0  0  0  0  0  0  0  0  0  0  0  0
    0.4924    4.3854    2.4428 H   0  0  0  0  0  0  0  0  0  0  0  0
   -0.6535    0.2200    4.9593 H   0  0  0  0  0  0  0  0  0  0  0  0
   -0.7724   -1.1136    8.4958 H   0  0  0  0  0  0  0  0  0  0  0  0
   -1.8170   -2.7613    7.3493 H   0  0  0  0  0  0  0  0  0  0  0  0
   -3.5918   -3.5434    6.3720 H   0  0  0  0  0  0  0  0  0  0  0  0
   -5.5758   -4.8178    6.2611 H   0  0  0  0  0  0  0  0  0  0  0  0
   -5.4471   -6.2707    5.2513 H   0  0  0  0  0  0  0  0  0  0  0  0
   -6.2640   -4.8497    4.6268 H   0  0  0  0  0  0  0  0  0  0  0  0
   -4.3709   -5.4925    0.7407 H   0  0  0  0  0  0  0  0  0  0  0  0
   -5.2958   -6.9560    1.1607 H   0  0  0  0  0  0  0  0  0  0  0  0
   -3.5289   -6.9306    1.3845 H   0  0  0  0  0  0  0  0  0  0  0  0
   -2.3551   -4.9495    1.7751 H   0  0  0  0  0  0  0  0  0  0  0  0
   -0.3009   -4.5433    1.3945 H   0  0  0  0  0  0  0  0  0  0  0  0
    1.7894   -3.8581    0.5920 H   0  0  0  0  0  0  0  0  0  0  0  0
    5.2179   -5.0124    1.3397 H   0  0  0  0  0  0  0  0  0  0  0  0
    5.9898   -3.5948    2.0914 H   0  0  0  0  0  0  0  0  0  0  0  0
    4.6150   -3.6257   -0.6485 H   0  0  0  0  0  0  0  0  0  0  0  0
    6.3644   -3.6187   -0.3782 H   0  0  0  0  0  0  0  0  0  0  0  0
    5.3843   -2.2193    0.0864 H   0  0  0  0  0  0  0  0  0  0  0  0
    6.7183    0.0596    3.5200 H   0  0  0  0  0  0  0  0  0  0  0  0
    6.2970    0.1340    1.7975 H   0  0  0  0  0  0  0  0  0  0  0  0
    8.7040   -0.4778    2.1725 H   0  0  0  0  0  0  0  0  0  0  0  0
    8.1860   -1.9202    3.0574 H   0  0  0  0  0  0  0  0  0  0  0  0
    7.8343   -1.7709    1.3332 H   0  0  0  0  0  0  0  0  0  0  0  0
    3.0290    2.1144    4.1907 H   0  0  0  0  0  0  0  0  0  0  0  0
    4.7364    2.5418    4.4420 H   0  0  0  0  0  0  0  0  0  0  0  0
    3.3098    0.0491    5.5116 H   0  0  0  0  0  0  0  0  0  0  0  0
    5.0439    0.3587    5.6862 H   0  0  0  0  0  0  0  0  0  0  0  0
    3.8698    1.4294    6.4646 H   0  0  0  0  0  0  0  0  0  0  0  0
    1.9345    1.1510    2.5599 H   0  0  0  0  0  0  0  0  0  0  0  0
   -0.0835   -1.2522    0.6399 H   0  0  0  0  0  0  0  0  0  0  0  0
   -0.3260    0.8769    2.8100 H   0  0  0  0  0  0  0  0  0  0  0  0
   -4.3570    1.1666    4.6913 H   0  0  0  0  0  0  0  0  0  0  0  0
   -3.0982    0.1158    5.3835 H   0  0  0  0  0  0  0  0  0  0  0  0
   -5.1475   -0.6277    3.2380 H   0  0  0  0  0  0  0  0  0  0  0  0
   -5.0027   -1.2935    4.8681 H   0  0  0  0  0  0  0  0  0  0  0  0
   -3.7631   -1.6474    3.6595 H   0  0  0  0  0  0  0  0  0  0  0  0
   -5.6798    3.4941    1.7411 H   0  0  0  0  0  0  0  0  0  0  0  0
   -4.6205    3.5330    3.1746 H   0  0  0  0  0  0  0  0  0  0  0  0
   -7.5729    2.7170    3.1582 H   0  0  0  0  0  0  0  0  0  0  0  0
   -6.5403    2.7630    4.5878 H   0  0  0  0  0  0  0  0  0  0  0  0
   -6.9412    4.2669    3.7412 H   0  0  0  0  0  0  0  0  0  0  0  0
   -6.9055    2.4462   -1.4458 H   0  0  0  0  0  0  0  0  0  0  0  0
   -5.2218    2.3978   -2.0060 H   0  0  0  0  0  0  0  0  0  0  0  0
   -5.3060   -0.1336   -1.8702 H   0  0  0  0  0  0  0  0  0  0  0  0
   -6.5244    0.5149   -2.9791 H   0  0  0  0  0  0  0  0  0  0  0  0
   -6.9894   -0.0242   -1.3579 H   0  0  0  0  0  0  0  0  0  0  0  0
   -3.4610    1.3047   -1.5735 H   0  0  0  0  0  0  0  0  0  0  0  0
   -0.0041    0.8798   -0.6153 H   0  0  0  0  0  0  0  0  0  0  0  0
   -2.1486   -0.0671   -2.5643 H   0  0  0  0  0  0  0  0  0  0  0  0
    2.6312   -1.1573   -0.3469 H   0  0  0  0  0  0  0  0  0  0  0  0
    3.3662   -1.4043   -1.9453 H   0  0  0  0  0  0  0  0  0  0  0  0
    2.9209    1.3008   -0.5874 H   0  0  0  0  0  0  0  0  0  0  0  0
    3.6944    1.0568   -2.1660 H   0  0  0  0  0  0  0  0  0  0  0  0
    4.4671    0.4545   -0.6932 H   0  0  0  0  0  0  0  0  0  0  0  0
    3.1249   -1.9827   -5.4675 H   0  0  0  0  0  0  0  0  0  0  0  0
    3.9867   -2.4919   -3.9995 H   0  0  0  0  0  0  0  0  0  0  0  0
    5.9087   -1.0277   -4.6397 H   0  0  0  0  0  0  0  0  0  0  0  0
    5.5744   -2.2362   -5.8925 H   0  0  0  0  0  0  0  0  0  0  0  0
    5.0523   -0.5538   -6.1098 H   0  0  0  0  0  0  0  0  0  0  0  0
    3.1931    0.6757   -8.2682 H   0  0  0  0  0  0  0  0  0  0  0  0
    1.5776    1.2937   -7.8747 H   0  0  0  0  0  0  0  0  0  0  0  0
    0.7296   -1.1065   -7.8785 H   0  0  0  0  0  0  0  0  0  0  0  0
    2.3443   -1.6361   -8.3647 H   0  0  0  0  0  0  0  0  0  0  0  0
    1.3851   -0.6172   -9.4464 H   0  0  0  0  0  0  0  0  0  0  0  0
   -0.0601    0.7802   -6.6457 H   0  0  0  0  0  0  0  0  0  0  0  0
   -2.4336    1.5640   -4.2005 H   0  0  0  0  0  0  0  0  0  0  0  0
   -3.7147    0.7983   -6.0645 H   0  0  0  0  0  0  0  0  0  0  0  0
   -2.0922    2.1622   -7.5840 H   0  0  0  0  0  0  0  0  0  0  0  0
   -3.2058    2.7738   -8.8340 H   0  0  0  0  0  0  0  0  0  0  0  0
   -1.7433    1.7425  -10.5974 H   0  0  0  0  0  0  0  0  0  0  0  0
   -0.8653    2.9445   -9.6295 H   0  0  0  0  0  0  0  0  0  0  0  0
   -0.6199    1.2116   -9.3513 H   0  0  0  0  0  0  0  0  0  0  0  0
   -3.2940   -1.2486  -12.3112 H   0  0  0  0  0  0  0  0  0  0  0  0
   -2.7567   -2.7193  -11.4604 H   0  0  0  0  0  0  0  0  0  0  0  0
   -4.6091   -2.4701   -9.8256 H   0  0  0  0  0  0  0  0  0  0  0  0
   -5.1075   -0.9603  -10.5911 H   0  0  0  0  0  0  0  0  0  0  0  0
   -5.2662   -2.4928  -11.4696 H   0  0  0  0  0  0  0  0  0  0  0  0
   -1.1219   -5.1400   -8.9807 H   0  0  0  0  0  0  0  0  0  0  0  0
    0.4062   -4.2199   -9.0772 H   0  0  0  0  0  0  0  0  0  0  0  0
   -1.1100   -5.4149  -11.4546 H   0  0  0  0  0  0  0  0  0  0  0  0
    0.3814   -6.0578  -10.7500 H   0  0  0  0  0  0  0  0  0  0  0  0
    0.3850   -4.4835  -11.5624 H   0  0  0  0  0  0  0  0  0  0  0  0
   -0.9111   -3.6583   -7.2542 H   0  0  0  0  0  0  0  0  0  0  0  0
   -2.2169   -1.8117   -4.4494 H   0  0  0  0  0  0  0  0  0  0  0  0
   -0.3578   -3.1430   -3.6567 H   0  0  0  0  0  0  0  0  0  0  0  0
    0.3178   -3.2639   -5.3514 H   0  0  0  0  0  0  0  0  0  0  0  0
  1  2  2  0  0  0  0
  2  3  1  0  0  0  0
  3  4  1  0  0  0  0
  4  5  1  0  0  0  0
  2  6  1  0  0  0  0
  6  7  1  0  0  0  0
  7  8  1  0  0  0  0
  8  9  1  0  0  0  0
  6 10  2  0  0  0  0
 10 11  1  0  0  0  0
 11 12  1  0  0  0  0
 12 13  1  0  0  0  0
 10 14  1  0  0  0  0
 14 15  2  0  0  0  0
 15 16  1  0  0  0  0
 16 17  2  0  0  0  0
 17 18  1  0  0  0  0
 18 19  1  0  0  0  0
 19 20  1  0  0  0  0
 20 21  2  0  0  0  0
 21 22  1  0  0  0  0
 22 23  1  0  0  0  0
 23 24  2  0  0  0  0
 24 25  1  0  0  0  0
 24 26  1  0  0  0  0
 26 27  1  0  0  0  0
 27 28  1  0  0  0  0
 26 29  2  0  0  0  0
 20 30  1  0  0  0  0
 30 31  2  0  0  0  0
 31 32  1  0  0  0  0
 32 33  2  0  0  0  0
 33 34  1  0  0  0  0
 34 35  1  0  0  0  0
 35 36  1  0  0  0  0
 33 37  1  0  0  0  0
 37 38  1  0  0  0  0
 38 39  1  0  0  0  0
 39 40  1  0  0  0  0
 37 41  2  0  0  0  0
 41 42  1  0  0  0  0
 42 43  1  0  0  0  0
 43 44  1  0  0  0  0
 41 45  1  0  0  0  0
 45 46  2  0  0  0  0
 46 47  1  0  0  0  0
 47 48  2  0  0  0  0
 48 49  1  0  0  0  0
 49 50  2  0  0  0  0
 50 51  1  0  0  0  0
 51 52  1  0  0  0  0
 52 53  1  0  0  0  0
 50 54  1  0  0  0  0
 54 55  1  0  0  0  0
 55 56  1  0  0  0  0
 56 57  1  0  0  0  0
 54 58  2  0  0  0  0
 58 59  1  0  0  0  0
 59 60  1  0  0  0  0
 60 61  1  0  0  0  0
 58 62  1  0  0  0  0
 62 63  2  0  0  0  0
 63 64  1  0  0  0  0
 64 65  2  0  0  0  0
 65 66  1  0  0  0  0
 66 67  2  0  0  0  0
 67 68  1  0  0  0  0
 68 69  1  0  0  0  0
 69 70  1  0  0  0  0
 67 71  1  0  0  0  0
 71 72  1  0  0  0  0
 72 73  1  0  0  0  0
 73 74  1  0  0  0  0
 71 75  2  0  0  0  0
 75 76  1  0  0  0  0
 76 77  1  0  0  0  0
 77 78  1  0  0  0  0
 75 79  1  0  0  0  0
 79 80  2  0  0  0  0
 80 81  1  0  0  0  0
 81 82  2  0  0  0  0
 82 83  1  0  0  0  0
 83 84  2  0  0  0  0
 84 85  1  0  0  0  0
 85 86  1  0  0  0  0
 86 87  1  0  0  0  0
 84 88  1  0  0  0  0
 88 89  1  0  0  0  0
 89 90  1  0  0  0  0
 90 91  1  0  0  0  0
 88 92  2  0  0  0  0
 92 93  1  0  0  0  0
 93 94  1  0  0  0  0
 94 95  1  0  0  0  0
 92 96  1  0  0  0  0
 96 97  2  0  0  0  0
 97 98  1  0  0  0  0
 98 99  2  0  0  0  0
 15  1  1  0  0  0  0
 22 18  2  0  0  0  0
 46 32  1  0  0  0  0
 63 49  1  0  0  0  0
 80 66  1  0  0  0  0
 97 83  1  0  0  0  0
 29 21  1  0  0  0  0
  1100  1  0  0  0  0
  4101  1  0  0  0  0
  4102  1  0  0  0  0
  5103  1  0  0  0  0
  5104  1  0  0  0  0
  5105  1  0  0  0  0
  8106  1  0  0  0  0
  8107  1  0  0  0  0
  9108  1  0  0  0  0
  9109  1  0  0  0  0
  9110  1  0  0  0  0
 12111  1  0  0  0  0
 12112  1  0  0  0  0
 13113  1  0  0  0  0
 13114  1  0  0  0  0
 13115  1  0  0  0  0
 14116  1  0  0  0  0
 16117  1  0  0  0  0
 17118  1  0  0  0  0
 23119  1  0  0  0  0
 25120  1  0  0  0  0
 25121  1  0  0  0  0
 25122  1  0  0  0  0
 28123  1  0  0  0  0
 28124  1  0  0  0  0
 28125  1  0  0  0  0
 29126  1  0  0  0  0
 30127  1  0  0  0  0
 31128  1  0  0  0  0
 35129  1  0  0  0  0
 35130  1  0  0  0  0
 36131  1  0  0  0  0
 36132  1  0  0  0  0
 36133  1  0  0  0  0
 39134  1  0  0  0  0
 39135  1  0  0  0  0
 40136  1  0  0  0  0
 40137  1  0  0  0  0
 40138  1  0  0  0  0
 43139  1  0  0  0  0
 43140  1  0  0  0  0
 44141  1  0  0  0  0
 44142  1  0  0  0  0
 44143  1  0  0  0  0
 45144  1  0  0  0  0
 47145  1  0  0  0  0
 48146  1  0  0  0  0
 52147  1  0  0  0  0
 52148  1  0  0  0  0
 53149  1  0  0  0  0
 53150  1  0  0  0  0
 53151  1  0  0  0  0
 56152  1  0  0  0  0
 56153  1  0  0  0  0
 57154  1  0  0  0  0
 57155  1  0  0  0  0
 57156  1  0  0  0  0
 60157  1  0  0  0  0
 60158  1  0  0  0  0
 61159  1  0  0  0  0
 61160  1  0  0  0  0
 61161  1  0  0  0  0
 62162  1  0  0  0  0
 64163  1  0  0  0  0
 65164  1  0  0  0  0
 69165  1  0  0  0  0
 69166  1  0  0  0  0
 70167  1  0  0  0  0
 70168  1  0  0  0  0
 70169  1  0  0  0  0
 73170  1  0  0  0  0
 73171  1  0  0  0  0
 74172  1  0  0  0  0
 74173  1  0  0  0  0
 74174  1  0  0  0  0
 77175  1  0  0  0  0
 77176  1  0  0  0  0
 78177  1  0  0  0  0
 78178  1  0  0  0  0
 78179  1  0  0  0  0
 79180  1  0  0  0  0
 81181  1  0  0  0  0
 82182  1  0  0  0  0
 86183  1  0  0  0  0
 86184  1  0  0  0  0
 87185  1  0  0  0  0
 87186  1  0  0  0  0
 87187  1  0  0  0  0
 90188  1  0  0  0  0
 90189  1  0  0  0  0
 91190  1  0  0  0  0
 91191  1  0  0  0  0
 91192  1  0  0  0  0
 94193  1  0  0  0  0
 94194  1  0  0  0  0
 95195  1  0  0  0  0
 95196  1  0  0  0  0
 95197  1  0  0  0  0
 96198  1  0  0  0  0
 98199  1  0  0  0  0
 99200  1  0  0  0  0
 99201  1  0  0  0  0
M  END
