
  xtb     03032200283D
 energy: -153.459554189169 gnorm: 0.000355680247 xtb: 6.4.1 (unknown)
 86 92  0     0  0            999 V2000
    2.0385   -1.6075    1.7140 C   0  0  0  0  0  0  0  0  0  0  0  0
    0.9578   -0.8750    3.0130 S   0  0  0  0  0  4  0  0  0  0  0  0
    2.4152   -0.2618    3.8849 C   0  0  0  0  0  0  0  0  0  0  0  0
    3.5532   -0.1762    2.9944 C   0  0  0  0  0  0  0  0  0  0  0  0
    4.6123    0.4668    3.4222 N   0  0  0  0  0  0  0  0  0  0  0  0
    5.6996    0.5728    2.6997 N   0  0  0  0  0  0  0  0  0  0  0  0
    3.3411   -0.8718    1.7665 C   0  0  0  0  0  0  0  0  0  0  0  0
    4.3388   -0.9840    0.4523 S   0  0  0  0  0  0  0  0  0  0  0  0
    2.3349   -0.0162    5.2101 C   0  0  0  0  0  0  0  0  0  0  0  0
    1.0220    2.5942    4.2869 S   0  0  0  0  0  4  0  0  0  0  0  0
   -0.2955    1.5055    4.6771 C   0  0  0  0  0  0  0  0  0  0  0  0
   -0.1023    0.2479    5.3693 C   0  0  0  0  0  0  0  0  0  0  0  0
   -1.3237   -0.2466    5.6183 N   0  0  0  0  0  0  0  0  0  0  0  0
   -1.5702   -1.4700    6.1883 N   0  0  0  0  0  0  0  0  0  0  0  0
    1.1197   -0.2097    5.9351 C   0  0  0  0  0  0  0  0  0  0  0  0
    1.1667   -1.0314    7.4168 S   0  0  0  0  0  0  0  0  0  0  0  0
   -1.6185    1.7158    4.4919 C   0  0  0  0  0  0  0  0  0  0  0  0
   -2.1225    0.8204    2.0222 S   0  0  0  0  0  4  0  0  0  0  0  0
   -3.1061   -0.3594    2.8742 C   0  0  0  0  0  0  0  0  0  0  0  0
   -3.3621   -0.1871    4.2803 C   0  0  0  0  0  0  0  0  0  0  0  0
   -4.4014   -0.8089    4.7337 N   0  0  0  0  0  0  0  0  0  0  0  0
   -4.6875   -0.9199    6.0180 N   0  0  0  0  0  0  0  0  0  0  0  0
   -2.3860    0.6195    5.1315 C   0  0  0  0  0  0  0  0  0  0  0  0
   -3.1174    1.4452    6.6094 S   0  0  0  0  0  0  0  0  0  0  0  0
   -3.6421   -1.4510    2.2232 C   0  0  0  0  0  0  0  0  0  0  0  0
   -3.7733   -1.6110   -2.0041 S   0  0  0  0  0  4  0  0  0  0  0  0
   -2.2150   -1.3298   -1.2261 C   0  0  0  0  0  0  0  0  0  0  0  0
   -2.1356   -1.7123    0.1702 C   0  0  0  0  0  0  0  0  0  0  0  0
   -0.9775   -2.0862    0.6007 N   0  0  0  0  0  0  0  0  0  0  0  0
   -0.7961   -2.5030    1.8914 N   0  0  0  0  0  0  0  0  0  0  0  0
   -3.3759   -1.9662    0.9477 C   0  0  0  0  0  0  0  0  0  0  0  0
   -4.2981   -3.2225    0.3424 S   0  0  0  0  0  0  0  0  0  0  0  0
   -1.1510   -0.9217   -1.9909 C   0  0  0  0  0  0  0  0  0  0  0  0
   -1.2283   -1.1549   -3.7388 S   0  0  0  0  0  0  0  0  0  0  0  0
    0.4145   -0.6375   -4.0014 C   0  0  0  0  0  0  0  0  0  0  0  0
    0.9418   -0.1106   -2.7724 C   0  0  0  0  0  0  0  0  0  0  0  0
    0.0780   -0.2564   -1.6667 C   0  0  0  0  0  0  0  0  0  0  0  0
    0.4111    0.3798   -0.4693 C   0  0  0  0  0  0  0  0  0  0  0  0
    1.5542    1.1379   -0.3606 C   0  0  0  0  0  0  0  0  0  0  0  0
    1.8391    1.9385    0.8664 C   0  0  0  0  0  0  0  0  0  0  0  0
    2.4617    1.1973   -1.4450 C   0  0  0  0  0  0  0  0  0  0  0  0
    3.5831    1.9239   -1.2222 O   0  0  0  0  0  0  0  0  0  0  0  0
    4.5883    1.9372   -2.2069 C   0  0  0  0  0  0  0  0  0  0  0  0
    2.1541    0.5682   -2.6370 C   0  0  0  0  0  0  0  0  0  0  0  0
    1.0882   -0.7452   -5.1936 C   0  0  0  0  0  0  0  0  0  0  0  0
    0.6256   -1.2177   -6.4294 C   0  0  0  0  0  0  0  0  0  0  0  0
   -0.6659   -1.5240   -6.7754 C   0  0  0  0  0  0  0  0  0  0  0  0
   -2.4858   -3.8764   -5.9532 S   0  0  0  0  0  4  0  0  0  0  0  0
   -3.1809   -3.1191   -7.3372 C   0  0  0  0  0  0  0  0  0  0  0  0
   -2.4702   -2.3523   -8.2472 C   0  0  0  0  0  0  0  0  0  0  0  0
   -3.1714   -1.9635   -9.3070 N   0  0  0  0  0  0  0  0  0  0  0  0
   -2.6293   -1.2063  -10.2359 N   0  0  0  0  0  0  0  0  0  0  0  0
   -1.0383   -2.0441   -8.0287 C   0  0  0  0  0  0  0  0  0  0  0  0
    0.0481   -2.3159   -9.2714 S   0  0  0  0  0  0  0  0  0  0  0  0
    1.5339   -1.5050    0.7527 H   0  0  0  0  0  0  0  0  0  0  0  0
    2.1739   -2.6648    1.9394 H   0  0  0  0  0  0  0  0  0  0  0  0
    0.7779   -1.9244    3.8437 H   0  0  0  0  0  0  0  0  0  0  0  0
    6.4885    0.9814    3.1721 H   0  0  0  0  0  0  0  0  0  0  0  0
    5.7976    0.1082    1.7991 H   0  0  0  0  0  0  0  0  0  0  0  0
    3.2496    0.1757    5.7506 H   0  0  0  0  0  0  0  0  0  0  0  0
    0.2249    3.5991    3.9276 H   0  0  0  0  0  0  0  0  0  0  0  0
   -0.8203   -1.6614    6.8740 H   0  0  0  0  0  0  0  0  0  0  0  0
   -2.4796   -1.4665    6.6458 H   0  0  0  0  0  0  0  0  0  0  0  0
   -2.0949    2.6083    4.1340 H   0  0  0  0  0  0  0  0  0  0  0  0
   -2.5557    0.4516    0.8083 H   0  0  0  0  0  0  0  0  0  0  0  0
   -4.2954   -0.1844    6.6437 H   0  0  0  0  0  0  0  0  0  0  0  0
   -5.6645   -1.1529    6.1557 H   0  0  0  0  0  0  0  0  0  0  0  0
   -4.3918   -1.9853    2.7942 H   0  0  0  0  0  0  0  0  0  0  0  0
   -3.5589   -0.7421   -3.0098 H   0  0  0  0  0  0  0  0  0  0  0  0
   -0.2132   -3.3339    1.8818 H   0  0  0  0  0  0  0  0  0  0  0  0
   -1.6558   -2.6581    2.4286 H   0  0  0  0  0  0  0  0  0  0  0  0
   -0.2530    0.3160    0.3759 H   0  0  0  0  0  0  0  0  0  0  0  0
    2.8705    1.8115    1.1853 H   0  0  0  0  0  0  0  0  0  0  0  0
    1.7057    2.9974    0.6472 H   0  0  0  0  0  0  0  0  0  0  0  0
    1.1651    1.6652    1.6735 H   0  0  0  0  0  0  0  0  0  0  0  0
    4.2443    2.4180   -3.1282 H   0  0  0  0  0  0  0  0  0  0  0  0
    5.4057    2.5183   -1.7834 H   0  0  0  0  0  0  0  0  0  0  0  0
    4.9399    0.9249   -2.4286 H   0  0  0  0  0  0  0  0  0  0  0  0
    2.8162    0.6414   -3.4834 H   0  0  0  0  0  0  0  0  0  0  0  0
    2.1327   -0.4647   -5.1642 H   0  0  0  0  0  0  0  0  0  0  0  0
    1.3764   -1.3496   -7.1993 H   0  0  0  0  0  0  0  0  0  0  0  0
   -1.4698   -1.3395   -6.0787 H   0  0  0  0  0  0  0  0  0  0  0  0
   -3.6144   -4.4356   -5.5130 H   0  0  0  0  0  0  0  0  0  0  0  0
   -4.2194   -3.3147   -7.5404 H   0  0  0  0  0  0  0  0  0  0  0  0
   -3.1765   -1.1449  -11.0810 H   0  0  0  0  0  0  0  0  0  0  0  0
   -1.6113   -1.1352  -10.3072 H   0  0  0  0  0  0  0  0  0  0  0  0
  1  2  1  0  0  0  0
  2  3  2  0  0  0  0
  3  4  1  0  0  0  0
  4  5  2  0  0  0  0
  5  6  1  0  0  0  0
  4  7  1  0  0  0  0
  7  8  2  0  0  0  0
  3  9  1  0  0  0  0
  9 10  1  0  0  0  0
 10 11  2  0  0  0  0
 11 12  1  0  0  0  0
 12 13  2  0  0  0  0
 13 14  1  0  0  0  0
 12 15  1  0  0  0  0
 15 16  2  0  0  0  0
 11 17  1  0  0  0  0
 17 18  1  0  0  0  0
 18 19  2  0  0  0  0
 19 20  1  0  0  0  0
 20 21  2  0  0  0  0
 21 22  1  0  0  0  0
 20 23  1  0  0  0  0
 23 24  2  0  0  0  0
 19 25  1  0  0  0  0
 25 26  1  0  0  0  0
 26 27  2  0  0  0  0
 27 28  1  0  0  0  0
 28 29  2  0  0  0  0
 29 30  1  0  0  0  0
 28 31  1  0  0  0  0
 31 32  2  0  0  0  0
 27 33  1  0  0  0  0
 33 34  1  0  0  0  0
 34 35  1  0  0  0  0
 35 36  2  0  0  0  0
 36 37  1  0  0  0  0
 37 38  1  0  0  0  0
 38 39  2  0  0  0  0
 39 40  1  0  0  0  0
 39 41  1  0  0  0  0
 41 42  1  0  0  0  0
 42 43  1  0  0  0  0
 41 44  2  0  0  0  0
 35 45  1  0  0  0  0
 45 46  2  0  0  0  0
 46 47  1  0  0  0  0
 47 48  1  0  0  0  0
 48 49  2  0  0  0  0
 49 50  1  0  0  0  0
 50 51  2  0  0  0  0
 51 52  1  0  0  0  0
 50 53  1  0  0  0  0
 53 54  2  0  0  0  0
  7  1  1  0  0  0  0
 15  9  1  0  0  0  0
 23 17  1  0  0  0  0
 31 25  1  0  0  0  0
 37 33  2  0  0  0  0
 53 47  1  0  0  0  0
 44 36  1  0  0  0  0
  1 55  1  0  0  0  0
  1 56  1  0  0  0  0
  2 57  1  0  0  0  0
  6 58  1  0  0  0  0
  6 59  1  0  0  0  0
  9 60  1  0  0  0  0
 10 61  1  0  0  0  0
 14 62  1  0  0  0  0
 14 63  1  0  0  0  0
 17 64  1  0  0  0  0
 18 65  1  0  0  0  0
 22 66  1  0  0  0  0
 22 67  1  0  0  0  0
 25 68  1  0  0  0  0
 26 69  1  0  0  0  0
 30 70  1  0  0  0  0
 30 71  1  0  0  0  0
 38 72  1  0  0  0  0
 40 73  1  0  0  0  0
 40 74  1  0  0  0  0
 40 75  1  0  0  0  0
 43 76  1  0  0  0  0
 43 77  1  0  0  0  0
 43 78  1  0  0  0  0
 44 79  1  0  0  0  0
 45 80  1  0  0  0  0
 46 81  1  0  0  0  0
 47 82  1  0  0  0  0
 48 83  1  0  0  0  0
 49 84  1  0  0  0  0
 52 85  1  0  0  0  0
 52 86  1  0  0  0  0
M  END
