218

C         -5.55470       -1.20000       -5.25650
C         -4.85130       -2.35000       -5.25680
C         -4.31250       -2.66640       -3.97620
C         -3.61730       -3.82190       -3.58820
C         -3.29050       -4.85570       -4.55740
S         -3.80890       -6.50050       -4.35120
C         -3.10360       -6.99060       -5.85480
C         -3.16510       -8.40760       -6.30840
C         -2.03460       -9.23630       -5.69320
C         -2.48840       -5.93340       -6.45770
Cl        -1.65750       -6.03350       -7.95660
C         -2.59800       -4.71930       -5.72780
Cl        -1.86190       -3.25400       -6.23750
C         -3.27070       -3.92860       -2.25030
C         -3.52060       -2.91120       -1.29490
C         -4.26670       -1.77810       -1.66940
C         -4.69690       -0.77090       -0.71730
S         -4.64220        0.92100       -1.12050
C         -5.37840        1.39400        0.36790
C         -5.65820        2.82450        0.67720
C         -4.69370        3.39230        1.71890
C         -5.64550        0.29320        1.12660
C         -5.27070       -0.93230        0.51680
Cl        -5.64310       -2.44580        1.23510
Cl        -6.40100        0.36040        2.66480
C         -4.63740       -1.68770       -3.01040
S         -5.60890       -0.42740       -3.71140
C         -2.94570       -3.22500       -0.03570
C         -2.35880       -4.45630        0.00830
S         -2.44260       -5.28110       -1.53740
C         -1.75670       -5.12340        1.11630
S         -1.89370       -6.84460        1.26950
C         -0.99650       -6.87210        2.74550
C         -0.64960       -5.58050        3.12920
C         -1.04270       -4.58520        2.18320
C         -0.58730       -3.25940        2.36480
C          0.14180       -2.92010        3.46440
C          0.71450       -1.55370        3.65340
C          0.36910       -3.89070        4.49650
O          0.97930       -3.40010        5.61040
C          1.10150       -4.24290        6.72780
C         -0.01210       -5.19130        4.32980
C         -0.54510       -8.10490        3.35820
C          0.74900       -8.29900        3.65570
C          1.75320       -7.33860        3.22230
C          2.58620       -6.55500        3.95070
C          3.19730       -5.51180        3.19760
C          3.94250       -4.41450        3.66770
C          4.37360       -4.32250        5.05000
S          4.17300       -2.86170        5.97070
C          4.91580       -3.55040        7.37400
C          5.06940       -2.76370        8.62940
C          3.71990       -2.48780        9.29390
C          5.28760       -4.83910        7.12970
Cl         6.06160       -5.85330        8.27970
C          4.98800       -5.27900        5.81300
Cl         5.45900       -6.82740        5.23670
C          4.20030       -3.39570        2.75480
C          3.84450       -3.48150        1.38920
C          3.16520       -4.60910        0.90230
C          2.77830       -4.69190       -0.49480
S          1.12870       -4.96460       -0.97490
C          1.51860       -4.84590       -2.66050
C          0.48710       -5.05300       -3.71280
C          0.14820       -6.53790       -3.84920
C          2.85380       -4.62570       -2.82160
C          3.56910       -4.52880       -1.59780
Cl         5.26930       -4.30380       -1.53560
Cl         3.62290       -4.46600       -4.34670
C          2.81850       -5.57300        1.83540
S          1.79720       -6.93630        1.51510
C          4.11930       -2.28490        0.68800
C          4.64730       -1.30310        1.47100
S          4.90520       -1.83980        3.11840
C          4.73880        0.06940        1.09280
C          4.64900        1.16630        1.89750
C          4.32250        2.35250        1.19130
C          3.86640        3.57660        1.71610
C          3.63580        3.72960        3.14490
S          4.22560        5.08350        4.05570
C          3.45660        4.53940        5.50860
C          3.61540        5.27690        6.79210
C          4.85900        4.80220        7.54760
C          2.78940        3.37290        5.28330
Cl         1.90570        2.52620        6.48390
C          2.87900        2.91540        3.94250
Cl         2.03990        1.52420        3.39070
C          3.43340        4.53510        0.81150
C          3.38660        4.30090       -0.58600
C          3.83300        3.07970       -1.11100
C          3.64590        2.73860       -2.51670
S          4.97060        2.35750       -3.57110
C          3.91410        2.02400       -4.90300
C          4.45250        1.65430       -6.24080
C          4.83320        2.90030       -7.04350
C          2.61510        2.20840       -4.53520
C          2.46070        2.60780       -3.18100
Cl         0.92530        2.83740       -2.44860
Cl         1.26930        1.96970       -5.57410
C          4.28610        2.13460       -0.20700
S          4.60900        0.47440       -0.60950
C          2.64490        5.29170       -1.26510
C          2.07660        6.21820       -0.43660
S          2.63140        6.03010        1.22400
C          0.94090        7.00480       -0.77290
S         -0.07280        6.37410       -2.02870
C         -1.35320        7.48000       -1.68030
C         -0.97060        8.36790       -0.67280
C          0.32100        8.07630       -0.13290
C          0.82100        8.85670        0.92990
C          0.08280        9.88250        1.44090
C          0.58150       10.73460        2.56270
C         -1.21190       10.16960        0.89730
O         -1.84470       11.21900        1.48980
C         -3.12290       11.57940        1.03060
C         -1.72890        9.42630       -0.13010
C         -2.58070        7.41630       -2.41360
C         -3.12460        6.29700       -2.93060
C         -2.71720        4.93670       -2.65770
C         -2.61950        3.90170       -3.53220
C         -2.25960        2.66360       -2.93410
C         -2.11750        1.41040       -3.55530
C         -2.53530        1.18330       -4.92400
S         -1.59740        0.17820       -5.98780
C         -2.73220        0.32910       -7.27980
C         -2.53140       -0.36950       -8.58030
C         -1.05950       -0.45270       -8.96960
C         -3.77480        1.11870       -6.89470
Cl        -5.11480        1.48680       -7.90540
C         -3.67090        1.60680       -5.56660
Cl        -4.93290        2.52920       -4.85760
C         -1.58220        0.38480       -2.77660
C         -1.29680        0.53780       -1.40280
C         -1.57590        1.74990       -0.74650
C         -1.44250        1.85060        0.69600
S         -2.15210        0.63520        1.73150
C         -1.67570        1.46360        3.17520
C         -2.01100        0.93310        4.52500
C         -3.36950        1.44670        5.00620
C         -1.01630        2.61310        2.86050
C         -0.86540        2.82410        1.46320
Cl         0.06060        4.12070        0.84740
Cl        -0.42290        3.73030        4.01900
C         -2.02780        2.79990       -1.54170
S         -2.40300        4.41160       -1.01020
C         -0.71620       -0.63970       -0.84910
C         -0.60070       -1.64070       -1.74330
S         -1.18630       -1.22560       -3.31500
H         -6.06740       -0.73940       -6.07810
H         -4.72730       -2.97300       -6.12310
H         -3.08520       -8.43110       -7.39680
H         -4.12580       -8.83620       -6.01840
H         -2.08590       -9.19800       -4.60780
H         -1.06810       -8.85260       -6.00960
H         -2.11780      -10.27190       -6.01140
H         -6.68010        2.90490        1.05730
H         -5.58310        3.40490       -0.24350
H         -3.67310        3.36790        1.34750
H         -4.74650        2.81690        2.63820
H         -4.95310        4.42440        1.93780
H         -2.98650       -2.56700        0.81170
H         -0.80000       -2.52510        1.60410
H          1.80280       -1.60960        3.66980
H          0.40500       -1.13820        4.61020
H          0.40520       -0.88730        2.85260
H          1.50450       -3.62070        7.52460
H          1.79060       -5.07180        6.53680
H          0.13040       -4.64470        7.03430
H          0.15450       -5.94120        5.08490
H         -1.28020       -8.87090        3.56430
H          1.07550       -9.17670        4.19520
H          2.70000       -6.66110        5.01420
H          5.71060       -3.32390        9.31170
H          5.55500       -1.81260        8.39960
H          3.08090       -1.91860        8.62270
H          3.86400       -1.91470       10.20600
H          3.22440       -3.42230        9.54710
H          0.87490       -4.67200       -4.65880
H         -0.41840       -4.49690       -3.46260
H          1.04590       -7.11020       -4.07020
H         -0.28670       -6.91070       -2.92490
H         -0.56480       -6.68260       -4.65460
H          3.86090       -2.12600       -0.34300
H          4.74660        1.10740        2.96640
H          3.69940        6.34510        6.58670
H          2.72860        5.10680        7.40620
H          5.75070        4.96920        6.94800
H          4.95890        5.34750        8.48210
H          4.78240        3.74070        7.76930
H          3.68870        1.09050       -6.77960
H          5.33230        1.02120       -6.11440
H          5.59580        3.46930       -6.51720
H          3.96270        3.53520       -7.18810
H          5.22120        2.61320       -8.01710
H          2.45750        5.27050       -2.32340
H          1.79740        8.63350        1.33300
H          0.63030       11.77580        2.24790
H          1.56670       10.40940        2.88490
H         -0.10740       10.68380        3.40430
H         -3.42870       12.42680        1.64220
H         -3.84090       10.76270        1.15820
H         -3.10140       11.88210       -0.02160
H         -2.70390        9.62740       -0.54310
H         -3.08140        8.36140       -2.58370
H         -3.98150        6.38970       -3.58630
H         -2.72950        4.03340       -4.59290
H         -3.10080        0.15800       -9.34870
H         -2.93930       -1.38270       -8.50200
H         -0.62860        0.54260       -9.04710
H         -0.95220       -0.95600       -9.92670
H         -0.50340       -1.01070       -8.21950
H         -2.02790       -0.15750        4.48930
H         -1.23370        1.25130        5.22320
H         -4.16030        1.09910        4.34590
H         -3.57090        1.08000        6.00920
H         -3.37780        2.53390        5.02480
H         -0.37310       -0.70970        0.16660
H         -0.19030       -2.61880       -1.58390
