91

C          8.88460        0.62180       10.90450
S          7.65200       -0.41430       10.28400
C          8.63980       -1.86370       10.35700
C          9.85380       -1.49170       10.87180
C          9.99450       -0.11410       11.15520
O         11.25440        0.08280       11.63590
C         11.87040       -1.13230       11.64690
O         12.97910       -1.32360       12.01250
O         11.03050       -2.10330       11.18470
C          8.19850       -3.19620       10.08630
C          7.18190       -3.61810        9.30660
C          6.42040       -2.85820        8.36930
S          4.84730       -3.43500        7.83660
C          4.61580       -2.16120        6.64990
C          5.72980       -1.35680        6.70260
C          6.71290       -1.73860        7.62990
O          7.76140       -0.87510        7.49920
C          7.41840        0.02400        6.53290
O          8.10320        0.92310        6.18080
O          6.18400       -0.25550        6.03630
C          3.48820       -2.05110        5.80260
C          2.45770       -2.92920        5.77210
C          1.36570       -2.83130        4.88090
S          1.17780       -1.53310        3.70790
C         -0.29900       -2.17750        3.00900
C         -0.60110       -3.33650        3.69280
C          0.29910       -3.68600        4.70720
O         -0.13540       -4.84730        5.27410
C         -1.27880       -5.20150        4.62130
O         -1.92190       -6.16530        4.86230
O         -1.57760       -4.29190        3.65280
C         -0.93550       -1.53290        1.92590
C         -2.00910       -2.05890        1.27480
C         -2.66050       -1.49010        0.15920
S         -3.54830       -2.54750       -0.88990
C         -3.82170       -1.30720       -2.07230
C         -3.34290       -0.06820       -1.60020
C         -2.68570       -0.17320       -0.33840
C         -2.22680        0.99940        0.29220
C         -2.36620        2.22090       -0.30450
C         -1.89250        3.47890        0.34640
C         -3.01460        2.31640       -1.57210
O         -3.11510        3.57700       -2.06220
C         -3.74820        3.77650       -3.30280
C         -3.51130        1.19590       -2.19310
C         -4.39830       -1.68570       -3.30350
C         -4.30580       -1.00320       -4.47770
C         -4.88630       -1.45050       -5.68430
S         -4.64850       -0.55660       -7.17940
C         -5.58300       -1.66250       -8.17390
C         -6.03360       -2.65800       -7.32830
C         -5.66510       -2.54750       -5.98380
O         -6.19670       -3.61350       -5.31370
C         -6.87210       -4.35820       -6.23250
O         -7.45520       -5.35950       -5.99160
O         -6.78330       -3.78900       -7.46790
C         -5.80240       -1.65200       -9.57390
C         -5.46440       -0.79830      -10.57090
C         -4.83510        0.47510      -10.60050
S         -4.48410        1.56780       -9.27220
C         -3.82040        2.83520      -10.28930
C         -3.88910        2.39790      -11.58530
C         -4.44910        1.12140      -11.75390
O         -4.44940        0.83730      -13.08870
C         -3.90160        1.91310      -13.72100
O         -3.74890        2.00050      -14.89120
O         -3.55450        2.87410      -12.81970
C         -3.31590        4.07400       -9.77640
C         -3.29740        4.39970       -8.48610
H          8.70580        1.66860       11.02900
H          8.76760       -3.94780       10.61870
H          6.91180       -4.66420        9.35320
H          3.49340       -1.20350        5.12940
H          2.44780       -3.77950        6.44140
H         -0.47830       -0.61430        1.59450
H         -2.36020       -3.03650        1.58010
H         -1.79820        0.94290        1.27930
H         -1.45190        3.27300        1.31760
H         -2.72340        4.17190        0.46740
H         -1.15450        3.96950       -0.28620
H         -3.23880        3.23310       -4.10510
H         -4.80040        3.47680       -3.27080
H         -3.68510        4.84610       -3.49550
H         -4.07380        1.27650       -3.10610
H         -4.90340       -2.64340       -3.31350
H         -3.72530       -0.09810       -4.55390
H         -6.33300       -2.54490       -9.88530
H         -5.71400       -1.12870      -11.57270
H         -2.93760        4.74920      -10.53220
H         -3.67610        3.72440       -7.73660
H         -2.90740        5.34260       -8.14890
