
  xtb     03022213343D
 energy: -245.727762376183 gnorm: 0.000407170613 xtb: 6.4.1 (unknown)
151162  0     0  0            999 V2000
    1.9793   -1.2266    0.3559 C   0  0  0  0  0  0  0  0  0  0  0  0
    1.4921   -0.7814    1.9530 S   0  0  0  0  0  0  0  0  0  0  0  0
    1.2818   -0.5204   -0.5637 C   0  0  0  0  0  0  0  0  0  0  0  0
    1.2249   -0.3506   -2.0535 C   0  0  0  0  0  0  0  0  0  0  0  0
    2.2730    0.5611   -2.4882 N   0  0  0  0  0  0  0  0  0  0  0  0
    3.6226    0.0324   -2.3689 C   0  0  0  0  0  0  0  0  0  0  0  0
    4.6078    0.9480   -3.0783 C   0  0  0  0  0  0  0  0  0  0  0  0
   -0.0312    0.2725   -2.2660 O   0  0  0  0  0  0  0  0  0  0  0  0
   -0.3153    1.1041   -1.1485 C   0  0  0  0  0  0  0  0  0  0  0  0
    0.2048    2.3826   -1.3148 O   0  0  0  0  0  0  0  0  0  0  0  0
    0.3353    0.3680   -0.0053 C   0  0  0  0  0  0  0  0  0  0  0  0
    0.3088    0.3772    1.3623 C   0  0  0  0  0  0  0  0  0  0  0  0
   -0.4966    1.1556    2.2412 C   0  0  0  0  0  0  0  0  0  0  0  0
   -0.3552    1.1735    3.5829 C   0  0  0  0  0  0  0  0  0  0  0  0
   -1.1821    1.8964    4.4839 C   0  0  0  0  0  0  0  0  0  0  0  0
   -2.5366    2.8746    3.9687 S   0  0  0  0  0  0  0  0  0  0  0  0
   -1.1364    1.8917    5.8574 C   0  0  0  0  0  0  0  0  0  0  0  0
   -0.2635    1.2690    6.9000 C   0  0  0  0  0  0  0  0  0  0  0  0
   -0.0933   -0.1323    6.7069 N   0  0  0  0  0  0  0  0  0  0  0  0
    0.8338   -0.7812    7.6232 C   0  0  0  0  0  0  0  0  0  0  0  0
    0.9911   -2.2463    7.2434 C   0  0  0  0  0  0  0  0  0  0  0  0
   -0.9461    1.5869    8.1435 O   0  0  0  0  0  0  0  0  0  0  0  0
   -1.9965    2.5081    7.9580 C   0  0  0  0  0  0  0  0  0  0  0  0
   -1.6751    3.7652    8.4832 O   0  0  0  0  0  0  0  0  0  0  0  0
   -2.1678    2.6077    6.4728 C   0  0  0  0  0  0  0  0  0  0  0  0
   -3.0598    3.1967    5.6104 C   0  0  0  0  0  0  0  0  0  0  0  0
   -4.1836    4.0117    5.9660 C   0  0  0  0  0  0  0  0  0  0  0  0
   -5.2395    4.3375    5.1958 C   0  0  0  0  0  0  0  0  0  0  0  0
   -5.4840    3.8019    3.8788 C   0  0  0  0  0  0  0  0  0  0  0  0
   -5.4515    2.0794    3.5629 S   0  0  0  0  0  0  0  0  0  0  0  0
   -5.6845    4.4626    2.6979 C   0  0  0  0  0  0  0  0  0  0  0  0
   -5.7216    5.8946    2.2641 C   0  0  0  0  0  0  0  0  0  0  0  0
   -4.4398    6.5234    2.4736 N   0  0  0  0  0  0  0  0  0  0  0  0
   -4.4673    7.9724    2.5652 C   0  0  0  0  0  0  0  0  0  0  0  0
   -4.7104    8.5947    1.1964 C   0  0  0  0  0  0  0  0  0  0  0  0
   -6.0360    5.8157    0.8753 O   0  0  0  0  0  0  0  0  0  0  0  0
   -5.7133    4.5399    0.3426 C   0  0  0  0  0  0  0  0  0  0  0  0
   -6.6395    4.1886   -0.6301 O   0  0  0  0  0  0  0  0  0  0  0  0
   -5.6583    3.6484    1.5557 C   0  0  0  0  0  0  0  0  0  0  0  0
   -5.4790    2.3107    1.8219 C   0  0  0  0  0  0  0  0  0  0  0  0
   -5.1099    1.2324    0.9889 C   0  0  0  0  0  0  0  0  0  0  0  0
   -4.9319    1.3147   -0.3573 C   0  0  0  0  0  0  0  0  0  0  0  0
   -4.2092    0.3538   -1.0896 C   0  0  0  0  0  0  0  0  0  0  0  0
   -3.3804   -0.9468   -0.2842 S   0  0  0  0  0  0  0  0  0  0  0  0
   -2.5660   -1.4478   -1.7339 C   0  0  0  0  0  0  0  0  0  0  0  0
   -2.9640   -0.6523   -2.8227 C   0  0  0  0  0  0  0  0  0  0  0  0
   -3.8893    0.3654   -2.4575 C   0  0  0  0  0  0  0  0  0  0  0  0
   -4.3513    1.2628   -3.4392 C   0  0  0  0  0  0  0  0  0  0  0  0
   -3.9082    1.1684   -4.7275 C   0  0  0  0  0  0  0  0  0  0  0  0
   -4.3704    2.1079   -5.7939 C   0  0  0  0  0  0  0  0  0  0  0  0
   -2.9681    0.1515   -5.0824 C   0  0  0  0  0  0  0  0  0  0  0  0
   -2.5878    0.1666   -6.3882 O   0  0  0  0  0  0  0  0  0  0  0  0
   -1.6270   -0.7657   -6.8179 C   0  0  0  0  0  0  0  0  0  0  0  0
   -2.5134   -0.7464   -4.1498 C   0  0  0  0  0  0  0  0  0  0  0  0
   -1.5583   -2.4232   -1.6955 C   0  0  0  0  0  0  0  0  0  0  0  0
   -1.1527   -3.0658   -0.5665 C   0  0  0  0  0  0  0  0  0  0  0  0
   -0.0181   -3.8941   -0.4876 C   0  0  0  0  0  0  0  0  0  0  0  0
    1.0995   -4.1264   -1.8188 S   0  0  0  0  0  0  0  0  0  0  0  0
    0.4718   -4.5545    0.6188 C   0  0  0  0  0  0  0  0  0  0  0  0
    0.0068   -4.7694    2.0238 C   0  0  0  0  0  0  0  0  0  0  0  0
   -0.4323   -3.5775    2.6535 N   0  0  0  0  0  0  0  0  0  0  0  0
   -1.0626   -3.7228    3.9546 C   0  0  0  0  0  0  0  0  0  0  0  0
   -1.6508   -2.3841    4.3789 C   0  0  0  0  0  0  0  0  0  0  0  0
    1.1717   -5.3744    2.6596 O   0  0  0  0  0  0  0  0  0  0  0  0
    2.1077   -5.8285    1.7111 C   0  0  0  0  0  0  0  0  0  0  0  0
    2.0822   -7.2235    1.5833 O   0  0  0  0  0  0  0  0  0  0  0  0
    1.6939   -5.1871    0.4195 C   0  0  0  0  0  0  0  0  0  0  0  0
    2.2144   -5.0805   -0.8567 C   0  0  0  0  0  0  0  0  0  0  0  0
    3.3840   -5.7469   -1.3012 C   0  0  0  0  0  0  0  0  0  0  0  0
    4.1097   -5.7043   -2.4472 C   0  0  0  0  0  0  0  0  0  0  0  0
    4.0744   -4.8791   -3.6061 C   0  0  0  0  0  0  0  0  0  0  0  0
    3.1480   -3.4107   -3.8289 S   0  0  0  0  0  0  0  0  0  0  0  0
    4.8557   -5.0696   -4.7261 C   0  0  0  0  0  0  0  0  0  0  0  0
    5.8648   -6.0718   -5.1951 C   0  0  0  0  0  0  0  0  0  0  0  0
    7.1232   -5.8931   -4.5057 N   0  0  0  0  0  0  0  0  0  0  0  0
    8.1017   -6.9200   -4.8190 C   0  0  0  0  0  0  0  0  0  0  0  0
    9.4073   -6.6447   -4.0908 C   0  0  0  0  0  0  0  0  0  0  0  0
    6.0304   -5.7770   -6.5759 O   0  0  0  0  0  0  0  0  0  0  0  0
    5.6017   -4.4563   -6.8816 C   0  0  0  0  0  0  0  0  0  0  0  0
    4.9911   -4.4329   -8.1259 O   0  0  0  0  0  0  0  0  0  0  0  0
    4.7189   -4.0913   -5.7171 C   0  0  0  0  0  0  0  0  0  0  0  0
    3.8270   -3.0976   -5.4152 C   0  0  0  0  0  0  0  0  0  0  0  0
    3.4439   -1.9746   -6.2184 C   0  0  0  0  0  0  0  0  0  0  0  0
    2.4957   -1.0969   -5.8965 C   0  0  0  0  0  0  0  0  0  0  0  0
    2.7397   -1.9688    0.2192 H   0  0  0  0  0  0  0  0  0  0  0  0
    1.2248   -1.3100   -2.6012 H   0  0  0  0  0  0  0  0  0  0  0  0
    2.0887    0.8112   -3.4570 H   0  0  0  0  0  0  0  0  0  0  0  0
    3.6957   -0.9859   -2.7828 H   0  0  0  0  0  0  0  0  0  0  0  0
    3.8608   -0.0201   -1.3022 H   0  0  0  0  0  0  0  0  0  0  0  0
    5.6232    0.5964   -2.9189 H   0  0  0  0  0  0  0  0  0  0  0  0
    4.5216    1.9613   -2.6948 H   0  0  0  0  0  0  0  0  0  0  0  0
    4.4111    0.9606   -4.1485 H   0  0  0  0  0  0  0  0  0  0  0  0
   -1.4002    1.2150   -1.0728 H   0  0  0  0  0  0  0  0  0  0  0  0
    1.1377    2.2811   -1.5667 H   0  0  0  0  0  0  0  0  0  0  0  0
   -1.2539    1.7641    1.7634 H   0  0  0  0  0  0  0  0  0  0  0  0
    0.4151    0.5772    4.0564 H   0  0  0  0  0  0  0  0  0  0  0  0
    0.7349    1.7335    6.9285 H   0  0  0  0  0  0  0  0  0  0  0  0
   -0.9957   -0.5973    6.7457 H   0  0  0  0  0  0  0  0  0  0  0  0
    1.7948   -0.2670    7.5271 H   0  0  0  0  0  0  0  0  0  0  0  0
    0.5058   -0.6948    8.6693 H   0  0  0  0  0  0  0  0  0  0  0  0
    1.7311   -2.7199    7.8829 H   0  0  0  0  0  0  0  0  0  0  0  0
    0.0466   -2.7737    7.3557 H   0  0  0  0  0  0  0  0  0  0  0  0
    1.3127   -2.3301    6.2089 H   0  0  0  0  0  0  0  0  0  0  0  0
   -2.8905    2.1072    8.4725 H   0  0  0  0  0  0  0  0  0  0  0  0
   -1.2720    3.6338    9.3493 H   0  0  0  0  0  0  0  0  0  0  0  0
   -4.1213    4.4180    6.9673 H   0  0  0  0  0  0  0  0  0  0  0  0
   -5.9519    5.0659    5.5626 H   0  0  0  0  0  0  0  0  0  0  0  0
   -6.5435    6.4748    2.7277 H   0  0  0  0  0  0  0  0  0  0  0  0
   -3.9721    6.1117    3.2718 H   0  0  0  0  0  0  0  0  0  0  0  0
   -5.2461    8.3170    3.2699 H   0  0  0  0  0  0  0  0  0  0  0  0
   -3.4959    8.2928    2.9485 H   0  0  0  0  0  0  0  0  0  0  0  0
   -3.9203    8.2961    0.5138 H   0  0  0  0  0  0  0  0  0  0  0  0
   -5.6572    8.2504    0.7911 H   0  0  0  0  0  0  0  0  0  0  0  0
   -4.7257    9.6790    1.2755 H   0  0  0  0  0  0  0  0  0  0  0  0
   -4.7376    4.5650   -0.1710 H   0  0  0  0  0  0  0  0  0  0  0  0
   -7.5231    4.3835   -0.2932 H   0  0  0  0  0  0  0  0  0  0  0  0
   -4.8266    0.3208    1.4995 H   0  0  0  0  0  0  0  0  0  0  0  0
   -5.2819    2.1857   -0.8914 H   0  0  0  0  0  0  0  0  0  0  0  0
   -5.0575    2.0321   -3.1662 H   0  0  0  0  0  0  0  0  0  0  0  0
   -5.0823    2.8249   -5.3951 H   0  0  0  0  0  0  0  0  0  0  0  0
   -4.8350    1.5521   -6.6069 H   0  0  0  0  0  0  0  0  0  0  0  0
   -3.5192    2.6420   -6.2130 H   0  0  0  0  0  0  0  0  0  0  0  0
   -0.6917   -0.6646   -6.2587 H   0  0  0  0  0  0  0  0  0  0  0  0
   -1.9938   -1.7933   -6.7260 H   0  0  0  0  0  0  0  0  0  0  0  0
   -1.4467   -0.5419   -7.8683 H   0  0  0  0  0  0  0  0  0  0  0  0
   -1.8070   -1.5174   -4.4062 H   0  0  0  0  0  0  0  0  0  0  0  0
   -1.0373   -2.6233   -2.6220 H   0  0  0  0  0  0  0  0  0  0  0  0
   -1.6728   -2.9107    0.3701 H   0  0  0  0  0  0  0  0  0  0  0  0
   -0.8188   -5.4993    2.0605 H   0  0  0  0  0  0  0  0  0  0  0  0
    0.3195   -2.8968    2.7028 H   0  0  0  0  0  0  0  0  0  0  0  0
   -0.3612   -4.0893    4.7186 H   0  0  0  0  0  0  0  0  0  0  0  0
   -1.8612   -4.4633    3.8465 H   0  0  0  0  0  0  0  0  0  0  0  0
   -2.2256   -2.5033    5.2936 H   0  0  0  0  0  0  0  0  0  0  0  0
   -2.3062   -2.0054    3.5990 H   0  0  0  0  0  0  0  0  0  0  0  0
   -0.8631   -1.6553    4.5510 H   0  0  0  0  0  0  0  0  0  0  0  0
    3.1098   -5.5059    2.0528 H   0  0  0  0  0  0  0  0  0  0  0  0
    2.0232   -7.6024    2.4681 H   0  0  0  0  0  0  0  0  0  0  0  0
    3.7277   -6.4587   -0.5587 H   0  0  0  0  0  0  0  0  0  0  0  0
    4.9085   -6.4356   -2.5093 H   0  0  0  0  0  0  0  0  0  0  0  0
    5.5028   -7.1200   -5.1457 H   0  0  0  0  0  0  0  0  0  0  0  0
    6.9696   -5.8386   -3.5038 H   0  0  0  0  0  0  0  0  0  0  0  0
    8.2553   -6.8861   -5.9000 H   0  0  0  0  0  0  0  0  0  0  0  0
    7.7302   -7.9285   -4.5605 H   0  0  0  0  0  0  0  0  0  0  0  0
    9.7701   -5.6526   -4.3439 H   0  0  0  0  0  0  0  0  0  0  0  0
   10.1558   -7.3791   -4.3757 H   0  0  0  0  0  0  0  0  0  0  0  0
    9.2625   -6.6958   -3.0133 H   0  0  0  0  0  0  0  0  0  0  0  0
    6.4642   -3.7750   -6.9595 H   0  0  0  0  0  0  0  0  0  0  0  0
    4.3944   -5.1896   -8.1865 H   0  0  0  0  0  0  0  0  0  0  0  0
    3.9874   -1.8911   -7.1507 H   0  0  0  0  0  0  0  0  0  0  0  0
    1.9392   -1.1884   -4.9777 H   0  0  0  0  0  0  0  0  0  0  0  0
    2.2471   -0.2718   -6.5403 H   0  0  0  0  0  0  0  0  0  0  0  0
  1  2  1  0  0  0  0
  1  3  2  0  0  0  0
  3  4  1  0  0  0  0
  4  5  1  0  0  0  0
  5  6  1  0  0  0  0
  6  7  1  0  0  0  0
  4  8  1  0  0  0  0
  8  9  1  0  0  0  0
  9 10  1  0  0  0  0
  9 11  1  0  0  0  0
 11 12  2  0  0  0  0
 12 13  1  0  0  0  0
 13 14  2  0  0  0  0
 14 15  1  0  0  0  0
 15 16  1  0  0  0  0
 15 17  2  0  0  0  0
 17 18  1  0  0  0  0
 18 19  1  0  0  0  0
 19 20  1  0  0  0  0
 20 21  1  0  0  0  0
 18 22  1  0  0  0  0
 22 23  1  0  0  0  0
 23 24  1  0  0  0  0
 23 25  1  0  0  0  0
 25 26  2  0  0  0  0
 26 27  1  0  0  0  0
 27 28  2  0  0  0  0
 28 29  1  0  0  0  0
 29 30  1  0  0  0  0
 29 31  2  0  0  0  0
 31 32  1  0  0  0  0
 32 33  1  0  0  0  0
 33 34  1  0  0  0  0
 34 35  1  0  0  0  0
 32 36  1  0  0  0  0
 36 37  1  0  0  0  0
 37 38  1  0  0  0  0
 37 39  1  0  0  0  0
 39 40  2  0  0  0  0
 40 41  1  0  0  0  0
 41 42  2  0  0  0  0
 42 43  1  0  0  0  0
 43 44  1  0  0  0  0
 44 45  1  0  0  0  0
 45 46  2  0  0  0  0
 46 47  1  0  0  0  0
 47 48  1  0  0  0  0
 48 49  2  0  0  0  0
 49 50  1  0  0  0  0
 49 51  1  0  0  0  0
 51 52  1  0  0  0  0
 52 53  1  0  0  0  0
 51 54  2  0  0  0  0
 45 55  1  0  0  0  0
 55 56  2  0  0  0  0
 56 57  1  0  0  0  0
 57 58  1  0  0  0  0
 57 59  2  0  0  0  0
 59 60  1  0  0  0  0
 60 61  1  0  0  0  0
 61 62  1  0  0  0  0
 62 63  1  0  0  0  0
 60 64  1  0  0  0  0
 64 65  1  0  0  0  0
 65 66  1  0  0  0  0
 65 67  1  0  0  0  0
 67 68  2  0  0  0  0
 68 69  1  0  0  0  0
 69 70  2  0  0  0  0
 70 71  1  0  0  0  0
 71 72  1  0  0  0  0
 71 73  2  0  0  0  0
 73 74  1  0  0  0  0
 74 75  1  0  0  0  0
 75 76  1  0  0  0  0
 76 77  1  0  0  0  0
 74 78  1  0  0  0  0
 78 79  1  0  0  0  0
 79 80  1  0  0  0  0
 79 81  1  0  0  0  0
 81 82  2  0  0  0  0
 82 83  1  0  0  0  0
 83 84  2  0  0  0  0
 12  2  1  0  0  0  0
 26 16  1  0  0  0  0
 40 30  1  0  0  0  0
 47 43  2  0  0  0  0
 68 58  1  0  0  0  0
 82 72  1  0  0  0  0
 11  3  1  0  0  0  0
 25 17  1  0  0  0  0
 39 31  1  0  0  0  0
 54 46  1  0  0  0  0
 67 59  1  0  0  0  0
 81 73  1  0  0  0  0
  1 85  1  0  0  0  0
  4 86  1  0  0  0  0
  5 87  1  0  0  0  0
  6 88  1  0  0  0  0
  6 89  1  0  0  0  0
  7 90  1  0  0  0  0
  7 91  1  0  0  0  0
  7 92  1  0  0  0  0
  9 93  1  0  0  0  0
 10 94  1  0  0  0  0
 13 95  1  0  0  0  0
 14 96  1  0  0  0  0
 18 97  1  0  0  0  0
 19 98  1  0  0  0  0
 20 99  1  0  0  0  0
 20100  1  0  0  0  0
 21101  1  0  0  0  0
 21102  1  0  0  0  0
 21103  1  0  0  0  0
 23104  1  0  0  0  0
 24105  1  0  0  0  0
 27106  1  0  0  0  0
 28107  1  0  0  0  0
 32108  1  0  0  0  0
 33109  1  0  0  0  0
 34110  1  0  0  0  0
 34111  1  0  0  0  0
 35112  1  0  0  0  0
 35113  1  0  0  0  0
 35114  1  0  0  0  0
 37115  1  0  0  0  0
 38116  1  0  0  0  0
 41117  1  0  0  0  0
 42118  1  0  0  0  0
 48119  1  0  0  0  0
 50120  1  0  0  0  0
 50121  1  0  0  0  0
 50122  1  0  0  0  0
 53123  1  0  0  0  0
 53124  1  0  0  0  0
 53125  1  0  0  0  0
 54126  1  0  0  0  0
 55127  1  0  0  0  0
 56128  1  0  0  0  0
 60129  1  0  0  0  0
 61130  1  0  0  0  0
 62131  1  0  0  0  0
 62132  1  0  0  0  0
 63133  1  0  0  0  0
 63134  1  0  0  0  0
 63135  1  0  0  0  0
 65136  1  0  0  0  0
 66137  1  0  0  0  0
 69138  1  0  0  0  0
 70139  1  0  0  0  0
 74140  1  0  0  0  0
 75141  1  0  0  0  0
 76142  1  0  0  0  0
 76143  1  0  0  0  0
 77144  1  0  0  0  0
 77145  1  0  0  0  0
 77146  1  0  0  0  0
 79147  1  0  0  0  0
 80148  1  0  0  0  0
 83149  1  0  0  0  0
 84150  1  0  0  0  0
 84151  1  0  0  0  0
M  END
