96

C          0.55360        7.15350        4.61650
S          0.39870        7.06700        2.89820
C          0.69110        5.33940        2.90000
C          0.89180        4.90430        4.18770
C          0.81730        5.93720        5.15590
S          1.11100        5.48090        6.82370
C          0.88510        3.69720        6.50210
S          1.24870        3.29100        4.75970
C          0.69810        4.54640        1.72450
C          0.47680        5.01160        0.47350
C          0.43870        4.18570       -0.67350
S          0.59040        2.44200       -0.58060
C          0.39230        2.24580       -2.30770
C          0.23360        3.49550       -2.88690
C          0.25510        4.56830       -1.98480
S          0.01050        6.17630       -2.62400
C          0.24700        5.66780       -4.36040
S         -0.01760        3.87530       -4.57670
C          0.34650        1.04750       -3.05500
C          0.56290       -0.26980       -2.77890
C          0.96060       -0.99340       -1.63690
S          1.13050       -0.36950       -0.02970
C          1.63870       -1.89130        0.63080
C          1.71970       -2.85380       -0.38330
C          1.31610       -2.35900       -1.65490
C          1.36070       -3.22860       -2.76230
C          1.76840       -4.52500       -2.62710
C          1.81400       -5.46750       -3.78650
C          2.19510       -5.00290       -1.35120
O          2.59420       -6.30310       -1.33280
C          2.94920       -6.87260       -0.09840
C          2.19760       -4.17410       -0.26010
C          2.00130       -1.95870        2.00850
C          1.79920       -2.97510        2.88400
C          0.95490       -4.10510        2.72020
S         -0.18700       -4.25490        1.40870
C         -0.89750       -5.70620        2.07040
C         -0.25600       -6.03610        3.24440
C          0.76290       -5.13780        3.61480
S          1.59260       -5.44600        5.12760
C          0.96980       -7.15600        5.26700
S         -0.58070       -7.37330        4.32700
C         -1.86910       -6.48140        1.37590
C         -2.50130       -6.14540        0.23440
C         -2.46950       -4.85420       -0.40600
S         -2.87330       -3.36370        0.41710
C         -2.60200       -2.40090       -1.02030
C         -2.27810       -3.22240       -2.07520
C         -2.21850       -4.59040       -1.72550
S         -1.71540       -5.72370       -2.96110
C         -1.98900       -4.54640       -4.32580
S         -1.89650       -2.82050       -3.73300
C         -2.73240       -0.99100       -0.92450
C         -2.66790       -0.12490       -1.96000
C         -2.77980        1.28440       -1.83250
S         -2.93680        2.26290       -3.27380
C         -2.99260        3.74620       -2.35340
C         -2.89630        3.46530       -1.01330
C         -2.78530        2.09030       -0.71450
S         -2.69920        1.64880        0.97340
C         -2.51440        3.35540        1.59600
S         -2.91980        4.59520        0.32280
C         -3.13180        5.03820       -2.95440
C         -3.22380        5.25700       -4.26430
H          0.45010        8.09400        5.11650
H          1.56190        3.13600        7.14240
H         -0.14960        3.42700        6.71620
H          0.90620        3.49280        1.87680
H          0.29820        6.06650        0.30780
H          1.26690        5.91020       -4.66100
H         -0.46840        6.20190       -4.98170
H          0.09420        1.25730       -4.09040
H          0.43850       -0.91320       -3.64090
H          1.07450       -2.86820       -3.73860
H          1.13300       -6.30030       -3.61520
H          2.81450       -5.88340       -3.89000
H          1.54000       -4.96210       -4.70910
H          2.12730       -6.80520        0.62250
H          3.84110       -6.39830        0.32440
H          3.16310       -7.92000       -0.30610
H          2.57070       -4.49800        0.69680
H          2.47320       -1.06450        2.39770
H          2.24500       -2.89890        3.86850
H          1.72200       -7.83790        4.86820
H          0.77930       -7.37700        6.31480
H         -2.03540       -7.46570        1.79600
H         -3.07690       -6.90250       -0.28370
H         -2.97970       -4.71580       -4.74910
H         -1.22490       -4.70060       -5.08400
H         -2.90540       -0.61800        0.07540
H         -2.54270       -0.49240       -2.96890
H         -1.48030        3.50520        1.91050
H         -3.18860        3.49020        2.44010
H         -3.15420        5.85760       -2.24600
H         -3.19840        4.44210       -4.96950
H         -3.32900        6.25040       -4.66290
