
  xtb     03022213043D
 energy: -171.887935591649 gnorm: 0.000550277735 xtb: 6.4.1 (unknown)
116122  0     0  0            999 V2000
   10.2031   -0.9380    3.4178 C   0  0  0  0  0  0  0  0  0  0  0  0
    9.8606   -0.2115    4.4781 C   0  0  0  0  0  0  0  0  0  0  0  0
    9.3970   -1.1186    2.2386 C   0  0  0  0  0  0  0  0  0  0  0  0
    9.9979   -2.1092    0.9357 S   0  0  0  0  0  0  0  0  0  0  0  0
    8.5714   -1.8531   -0.0059 C   0  0  0  0  0  0  0  0  0  0  0  0
    8.4930   -2.4514   -1.3652 C   0  0  0  0  0  0  0  0  0  0  0  0
    7.6713   -1.0430    0.6554 C   0  0  0  0  0  0  0  0  0  0  0  0
    8.1652   -0.6264    1.9228 C   0  0  0  0  0  0  0  0  0  0  0  0
    6.3822   -0.5975    0.1897 C   0  0  0  0  0  0  0  0  0  0  0  0
    5.6144   -1.1975   -0.7416 C   0  0  0  0  0  0  0  0  0  0  0  0
    4.3366   -0.7473   -1.1868 C   0  0  0  0  0  0  0  0  0  0  0  0
    3.2524   -1.9248   -1.8460 S   0  0  0  0  0  0  0  0  0  0  0  0
    1.9760   -0.7731   -2.0951 C   0  0  0  0  0  0  0  0  0  0  0  0
    2.3843    0.4934   -1.6670 C   0  0  0  0  0  0  0  0  0  0  0  0
    3.7323    0.5130   -1.1828 C   0  0  0  0  0  0  0  0  0  0  0  0
    4.3093    1.7520   -0.8244 C   0  0  0  0  0  0  0  0  0  0  0  0
    3.5744    2.8988   -0.8353 C   0  0  0  0  0  0  0  0  0  0  0  0
    4.1609    4.2234   -0.4649 C   0  0  0  0  0  0  0  0  0  0  0  0
    2.1904    2.8469   -1.1933 C   0  0  0  0  0  0  0  0  0  0  0  0
    1.5413    4.0418   -1.0933 O   0  0  0  0  0  0  0  0  0  0  0  0
    0.1672    4.0840   -1.3788 C   0  0  0  0  0  0  0  0  0  0  0  0
    1.6167    1.6783   -1.6141 C   0  0  0  0  0  0  0  0  0  0  0  0
    0.7784   -1.2723   -2.6861 C   0  0  0  0  0  0  0  0  0  0  0  0
   -0.1665   -0.5776   -3.3478 C   0  0  0  0  0  0  0  0  0  0  0  0
   -1.3642   -1.1434   -3.9386 C   0  0  0  0  0  0  0  0  0  0  0  0
   -2.3639   -0.3362   -4.3322 C   0  0  0  0  0  0  0  0  0  0  0  0
   -1.4801   -2.5849   -4.1240 C   0  0  0  0  0  0  0  0  0  0  0  0
   -3.0419   -3.3506   -4.0340 S   0  0  0  0  0  0  0  0  0  0  0  0
   -2.3695   -4.8982   -4.4215 C   0  0  0  0  0  0  0  0  0  0  0  0
   -3.2603   -6.0752   -4.6025 C   0  0  0  0  0  0  0  0  0  0  0  0
   -1.0125   -4.8219   -4.5913 C   0  0  0  0  0  0  0  0  0  0  0  0
   -0.5220   -3.4973   -4.4517 C   0  0  0  0  0  0  0  0  0  0  0  0
   -0.1498   -5.9662   -4.8746 C   0  0  0  0  0  0  0  0  0  0  0  0
   -0.1193   -7.0832   -4.1447 C   0  0  0  0  0  0  0  0  0  0  0  0
   -0.8587   -7.2715   -2.8921 C   0  0  0  0  0  0  0  0  0  0  0  0
   -1.4349   -8.4328   -2.5753 C   0  0  0  0  0  0  0  0  0  0  0  0
   -0.9168   -6.1296   -1.9821 C   0  0  0  0  0  0  0  0  0  0  0  0
    0.5361   -5.2475   -1.5946 S   0  0  0  0  0  0  0  0  0  0  0  0
   -0.3378   -4.1548   -0.5813 C   0  0  0  0  0  0  0  0  0  0  0  0
    0.3748   -3.0845    0.1683 C   0  0  0  0  0  0  0  0  0  0  0  0
   -1.6839   -4.4408   -0.5702 C   0  0  0  0  0  0  0  0  0  0  0  0
   -1.9892   -5.5944   -1.3442 C   0  0  0  0  0  0  0  0  0  0  0  0
   -2.6511   -3.5695    0.0457 C   0  0  0  0  0  0  0  0  0  0  0  0
   -3.9767   -3.7603    0.0817 C   0  0  0  0  0  0  0  0  0  0  0  0
   -4.9129   -2.7629    0.5821 C   0  0  0  0  0  0  0  0  0  0  0  0
   -6.0904   -3.1120    1.1169 C   0  0  0  0  0  0  0  0  0  0  0  0
   -4.5517   -1.3588    0.4280 C   0  0  0  0  0  0  0  0  0  0  0  0
   -3.6529   -0.8311   -0.9708 S   0  0  0  0  0  0  0  0  0  0  0  0
   -3.7394    0.8221   -0.4686 C   0  0  0  0  0  0  0  0  0  0  0  0
   -3.0435    1.8532   -1.2849 C   0  0  0  0  0  0  0  0  0  0  0  0
   -4.4199    0.9571    0.7180 C   0  0  0  0  0  0  0  0  0  0  0  0
   -4.8704   -0.2977    1.2168 C   0  0  0  0  0  0  0  0  0  0  0  0
   -4.6613    2.1841    1.4477 C   0  0  0  0  0  0  0  0  0  0  0  0
   -4.8093    3.4003    0.9079 C   0  0  0  0  0  0  0  0  0  0  0  0
   -5.0192    4.6371    1.6421 C   0  0  0  0  0  0  0  0  0  0  0  0
   -4.8864    5.8181    1.0199 C   0  0  0  0  0  0  0  0  0  0  0  0
   -5.3669    4.6147    3.0595 C   0  0  0  0  0  0  0  0  0  0  0  0
   -6.5495    3.5115    3.7064 S   0  0  0  0  0  0  0  0  0  0  0  0
   -6.4077    4.2000    5.2853 C   0  0  0  0  0  0  0  0  0  0  0  0
   -7.2264    3.6551    6.4038 C   0  0  0  0  0  0  0  0  0  0  0  0
   -5.4947    5.2276    5.3111 C   0  0  0  0  0  0  0  0  0  0  0  0
   -4.9175    5.4537    4.0316 C   0  0  0  0  0  0  0  0  0  0  0  0
   -5.1837    5.9780    6.5122 C   0  0  0  0  0  0  0  0  0  0  0  0
   -4.3453    7.0056    6.5861 C   0  0  0  0  0  0  0  0  0  0  0  0
   11.1564   -1.4505    3.4016 H   0  0  0  0  0  0  0  0  0  0  0  0
   10.5144   -0.1198    5.3272 H   0  0  0  0  0  0  0  0  0  0  0  0
    8.9226    0.3127    4.5352 H   0  0  0  0  0  0  0  0  0  0  0  0
    7.9241   -3.3828   -1.3521 H   0  0  0  0  0  0  0  0  0  0  0  0
    8.0083   -1.7619   -2.0554 H   0  0  0  0  0  0  0  0  0  0  0  0
    9.4926   -2.6770   -1.7315 H   0  0  0  0  0  0  0  0  0  0  0  0
    7.6000    0.0122    2.5778 H   0  0  0  0  0  0  0  0  0  0  0  0
    6.0000    0.2726    0.7046 H   0  0  0  0  0  0  0  0  0  0  0  0
    5.9189   -2.1510   -1.1482 H   0  0  0  0  0  0  0  0  0  0  0  0
    5.3548    1.7939   -0.5643 H   0  0  0  0  0  0  0  0  0  0  0  0
    5.2177    4.1277   -0.2305 H   0  0  0  0  0  0  0  0  0  0  0  0
    4.0376    4.9293   -1.2847 H   0  0  0  0  0  0  0  0  0  0  0  0
    3.6377    4.6350    0.3970 H   0  0  0  0  0  0  0  0  0  0  0  0
   -0.0381    3.8140   -2.4202 H   0  0  0  0  0  0  0  0  0  0  0  0
   -0.3983    3.4229   -0.7142 H   0  0  0  0  0  0  0  0  0  0  0  0
   -0.1396    5.1150   -1.2086 H   0  0  0  0  0  0  0  0  0  0  0  0
    0.5773    1.6353   -1.8883 H   0  0  0  0  0  0  0  0  0  0  0  0
    0.6707   -2.3459   -2.6160 H   0  0  0  0  0  0  0  0  0  0  0  0
   -0.0700    0.4918   -3.4667 H   0  0  0  0  0  0  0  0  0  0  0  0
   -2.3024    0.7327   -4.2236 H   0  0  0  0  0  0  0  0  0  0  0  0
   -3.2666   -0.7263   -4.7679 H   0  0  0  0  0  0  0  0  0  0  0  0
   -2.7654   -6.8240   -5.2179 H   0  0  0  0  0  0  0  0  0  0  0  0
   -3.5077   -6.5385   -3.6473 H   0  0  0  0  0  0  0  0  0  0  0  0
   -4.1898   -5.7733   -5.0819 H   0  0  0  0  0  0  0  0  0  0  0  0
    0.5123   -3.2492   -4.6110 H   0  0  0  0  0  0  0  0  0  0  0  0
    0.4930   -5.8710   -5.7410 H   0  0  0  0  0  0  0  0  0  0  0  0
    0.4887   -7.9186   -4.4657 H   0  0  0  0  0  0  0  0  0  0  0  0
   -1.4087   -9.2743   -3.2464 H   0  0  0  0  0  0  0  0  0  0  0  0
   -1.9560   -8.5686   -1.6435 H   0  0  0  0  0  0  0  0  0  0  0  0
    1.4450   -3.1470   -0.0119 H   0  0  0  0  0  0  0  0  0  0  0  0
    0.1971   -3.1879    1.2393 H   0  0  0  0  0  0  0  0  0  0  0  0
    0.0282   -2.0964   -0.1380 H   0  0  0  0  0  0  0  0  0  0  0  0
   -2.9850   -5.9836   -1.4509 H   0  0  0  0  0  0  0  0  0  0  0  0
   -2.2412   -2.6605    0.4644 H   0  0  0  0  0  0  0  0  0  0  0  0
   -4.4121   -4.6901   -0.2547 H   0  0  0  0  0  0  0  0  0  0  0  0
   -6.3637   -4.1462    1.2357 H   0  0  0  0  0  0  0  0  0  0  0  0
   -6.7999   -2.3791    1.4576 H   0  0  0  0  0  0  0  0  0  0  0  0
   -2.1954    1.4019   -1.7965 H   0  0  0  0  0  0  0  0  0  0  0  0
   -2.6953    2.6661   -0.6494 H   0  0  0  0  0  0  0  0  0  0  0  0
   -3.7099    2.2690   -2.0426 H   0  0  0  0  0  0  0  0  0  0  0  0
   -5.4117   -0.3921    2.1416 H   0  0  0  0  0  0  0  0  0  0  0  0
   -4.7457    2.0543    2.5186 H   0  0  0  0  0  0  0  0  0  0  0  0
   -4.7614    3.5213   -0.1643 H   0  0  0  0  0  0  0  0  0  0  0  0
   -5.0473    6.7505    1.5312 H   0  0  0  0  0  0  0  0  0  0  0  0
   -4.6117    5.8763   -0.0194 H   0  0  0  0  0  0  0  0  0  0  0  0
   -7.8405    2.8301    6.0510 H   0  0  0  0  0  0  0  0  0  0  0  0
   -7.8822    4.4241    6.8133 H   0  0  0  0  0  0  0  0  0  0  0  0
   -6.5868    3.2911    7.2087 H   0  0  0  0  0  0  0  0  0  0  0  0
   -4.1690    6.2015    3.8434 H   0  0  0  0  0  0  0  0  0  0  0  0
   -5.6998    5.6505    7.4052 H   0  0  0  0  0  0  0  0  0  0  0  0
   -4.1686    7.5183    7.5160 H   0  0  0  0  0  0  0  0  0  0  0  0
   -3.8093    7.3788    5.7306 H   0  0  0  0  0  0  0  0  0  0  0  0
  1  2  2  0  0  0  0
  1  3  1  0  0  0  0
  3  4  1  0  0  0  0
  4  5  1  0  0  0  0
  5  6  1  0  0  0  0
  5  7  2  0  0  0  0
  7  8  1  0  0  0  0
  7  9  1  0  0  0  0
  9 10  2  0  0  0  0
 10 11  1  0  0  0  0
 11 12  1  0  0  0  0
 12 13  1  0  0  0  0
 13 14  2  0  0  0  0
 14 15  1  0  0  0  0
 15 16  1  0  0  0  0
 16 17  2  0  0  0  0
 17 18  1  0  0  0  0
 17 19  1  0  0  0  0
 19 20  1  0  0  0  0
 20 21  1  0  0  0  0
 19 22  2  0  0  0  0
 13 23  1  0  0  0  0
 23 24  2  0  0  0  0
 24 25  1  0  0  0  0
 25 26  2  0  0  0  0
 25 27  1  0  0  0  0
 27 28  1  0  0  0  0
 28 29  1  0  0  0  0
 29 30  1  0  0  0  0
 29 31  2  0  0  0  0
 31 32  1  0  0  0  0
 31 33  1  0  0  0  0
 33 34  2  0  0  0  0
 34 35  1  0  0  0  0
 35 36  2  0  0  0  0
 35 37  1  0  0  0  0
 37 38  1  0  0  0  0
 38 39  1  0  0  0  0
 39 40  1  0  0  0  0
 39 41  2  0  0  0  0
 41 42  1  0  0  0  0
 41 43  1  0  0  0  0
 43 44  2  0  0  0  0
 44 45  1  0  0  0  0
 45 46  2  0  0  0  0
 45 47  1  0  0  0  0
 47 48  1  0  0  0  0
 48 49  1  0  0  0  0
 49 50  1  0  0  0  0
 49 51  2  0  0  0  0
 51 52  1  0  0  0  0
 51 53  1  0  0  0  0
 53 54  2  0  0  0  0
 54 55  1  0  0  0  0
 55 56  2  0  0  0  0
 55 57  1  0  0  0  0
 57 58  1  0  0  0  0
 58 59  1  0  0  0  0
 59 60  1  0  0  0  0
 59 61  2  0  0  0  0
 61 62  1  0  0  0  0
 61 63  1  0  0  0  0
 63 64  2  0  0  0  0
  8  3  2  0  0  0  0
 15 11  2  0  0  0  0
 32 27  2  0  0  0  0
 42 37  2  0  0  0  0
 52 47  2  0  0  0  0
 62 57  2  0  0  0  0
 22 14  1  0  0  0  0
  1 65  1  0  0  0  0
  2 66  1  0  0  0  0
  2 67  1  0  0  0  0
  6 68  1  0  0  0  0
  6 69  1  0  0  0  0
  6 70  1  0  0  0  0
  8 71  1  0  0  0  0
  9 72  1  0  0  0  0
 10 73  1  0  0  0  0
 16 74  1  0  0  0  0
 18 75  1  0  0  0  0
 18 76  1  0  0  0  0
 18 77  1  0  0  0  0
 21 78  1  0  0  0  0
 21 79  1  0  0  0  0
 21 80  1  0  0  0  0
 22 81  1  0  0  0  0
 23 82  1  0  0  0  0
 24 83  1  0  0  0  0
 26 84  1  0  0  0  0
 26 85  1  0  0  0  0
 30 86  1  0  0  0  0
 30 87  1  0  0  0  0
 30 88  1  0  0  0  0
 32 89  1  0  0  0  0
 33 90  1  0  0  0  0
 34 91  1  0  0  0  0
 36 92  1  0  0  0  0
 36 93  1  0  0  0  0
 40 94  1  0  0  0  0
 40 95  1  0  0  0  0
 40 96  1  0  0  0  0
 42 97  1  0  0  0  0
 43 98  1  0  0  0  0
 44 99  1  0  0  0  0
 46100  1  0  0  0  0
 46101  1  0  0  0  0
 50102  1  0  0  0  0
 50103  1  0  0  0  0
 50104  1  0  0  0  0
 52105  1  0  0  0  0
 53106  1  0  0  0  0
 54107  1  0  0  0  0
 56108  1  0  0  0  0
 56109  1  0  0  0  0
 60110  1  0  0  0  0
 60111  1  0  0  0  0
 60112  1  0  0  0  0
 62113  1  0  0  0  0
 63114  1  0  0  0  0
 64115  1  0  0  0  0
 64116  1  0  0  0  0
M  END
