
  xtb     03022211103D
 energy: -203.294001974672 gnorm: 0.000418439893 xtb: 6.4.1 (unknown)
156162  0     0  0            999 V2000
    5.8281    2.5133   -0.3760 C   0  0  0  0  0  0  0  0  0  0  0  0
    7.1392    2.4784   -0.8105 C   0  0  0  0  0  0  0  0  0  0  0  0
    8.2405    2.0129    0.0938 C   0  0  0  0  0  0  0  0  0  0  0  0
    7.4093    2.9154   -2.0990 C   0  0  0  0  0  0  0  0  0  0  0  0
    6.3990    3.3327   -2.9545 C   0  0  0  0  0  0  0  0  0  0  0  0
    6.7881    3.7325   -4.3542 C   0  0  0  0  0  0  0  0  0  0  0  0
    6.8792    2.5093   -5.2690 C   0  0  0  0  0  0  0  0  0  0  0  0
    5.0724    3.3452   -2.5193 C   0  0  0  0  0  0  0  0  0  0  0  0
    3.9678    3.6872   -3.4790 C   0  0  0  0  0  0  0  0  0  0  0  0
    4.7937    2.9775   -1.1925 C   0  0  0  0  0  0  0  0  0  0  0  0
    3.4746    3.0359   -0.5865 C   0  0  0  0  0  0  0  0  0  0  0  0
    2.5446    3.9933   -0.7701 C   0  0  0  0  0  0  0  0  0  0  0  0
    1.2687    3.9947   -0.1432 C   0  0  0  0  0  0  0  0  0  0  0  0
    0.7818    2.7228    0.9301 S   0  0  0  0  0  0  0  0  0  0  0  0
   -0.8021    3.3912    1.1588 C   0  0  0  0  0  0  0  0  0  0  0  0
   -0.9430    4.5729    0.4289 C   0  0  0  0  0  0  0  0  0  0  0  0
    0.2319    4.9177   -0.3069 C   0  0  0  0  0  0  0  0  0  0  0  0
    0.2271    6.0867   -1.0979 C   0  0  0  0  0  0  0  0  0  0  0  0
   -0.8753    6.8854   -1.1563 C   0  0  0  0  0  0  0  0  0  0  0  0
   -0.9111    8.1322   -1.9814 C   0  0  0  0  0  0  0  0  0  0  0  0
   -2.0450    6.5378   -0.4076 C   0  0  0  0  0  0  0  0  0  0  0  0
   -3.0786    7.4201   -0.5428 O   0  0  0  0  0  0  0  0  0  0  0  0
   -4.2665    7.1698    0.1621 C   0  0  0  0  0  0  0  0  0  0  0  0
   -2.0784    5.4097    0.3645 C   0  0  0  0  0  0  0  0  0  0  0  0
   -1.7673    2.7266    1.9665 C   0  0  0  0  0  0  0  0  0  0  0  0
   -1.4929    1.6229    2.6840 C   0  0  0  0  0  0  0  0  0  0  0  0
   -2.4328    0.8237    3.4537 C   0  0  0  0  0  0  0  0  0  0  0  0
   -3.4067    1.3920    4.2809 C   0  0  0  0  0  0  0  0  0  0  0  0
   -3.4961    2.8692    4.5323 C   0  0  0  0  0  0  0  0  0  0  0  0
   -4.3077    0.5525    4.9149 C   0  0  0  0  0  0  0  0  0  0  0  0
   -4.2608   -0.8265    4.7831 C   0  0  0  0  0  0  0  0  0  0  0  0
   -5.2792   -1.6483    5.5265 C   0  0  0  0  0  0  0  0  0  0  0  0
   -4.8228   -1.9258    6.9605 C   0  0  0  0  0  0  0  0  0  0  0  0
   -3.2594   -1.4075    4.0018 C   0  0  0  0  0  0  0  0  0  0  0  0
   -3.1440   -2.9013    3.9172 C   0  0  0  0  0  0  0  0  0  0  0  0
   -2.3646   -0.5813    3.3200 C   0  0  0  0  0  0  0  0  0  0  0  0
   -1.3346   -1.1121    2.4133 C   0  0  0  0  0  0  0  0  0  0  0  0
   -1.4977   -1.8813    1.3376 C   0  0  0  0  0  0  0  0  0  0  0  0
   -2.7434   -2.4666    0.8405 C   0  0  0  0  0  0  0  0  0  0  0  0
   -3.8975   -1.7128    0.6112 C   0  0  0  0  0  0  0  0  0  0  0  0
   -3.9205   -0.2180    0.7186 C   0  0  0  0  0  0  0  0  0  0  0  0
   -5.0481   -2.3637    0.1968 C   0  0  0  0  0  0  0  0  0  0  0  0
   -5.1033   -3.7345   -0.0138 C   0  0  0  0  0  0  0  0  0  0  0  0
   -6.4079   -4.3344   -0.4653 C   0  0  0  0  0  0  0  0  0  0  0  0
   -6.4275   -4.5318   -1.9820 C   0  0  0  0  0  0  0  0  0  0  0  0
   -3.9320   -4.4778    0.1221 C   0  0  0  0  0  0  0  0  0  0  0  0
   -3.8834   -5.9559   -0.1445 C   0  0  0  0  0  0  0  0  0  0  0  0
   -2.7526   -3.8380    0.5241 C   0  0  0  0  0  0  0  0  0  0  0  0
   -1.5040   -4.6091    0.4901 C   0  0  0  0  0  0  0  0  0  0  0  0
   -0.5561   -4.6836    1.4163 C   0  0  0  0  0  0  0  0  0  0  0  0
    0.7048   -5.4215    1.2030 C   0  0  0  0  0  0  0  0  0  0  0  0
    0.8803   -6.6971    1.7373 C   0  0  0  0  0  0  0  0  0  0  0  0
   -0.2187   -7.3358    2.5325 C   0  0  0  0  0  0  0  0  0  0  0  0
    2.0754   -7.3544    1.5061 C   0  0  0  0  0  0  0  0  0  0  0  0
    3.1065   -6.7846    0.7689 C   0  0  0  0  0  0  0  0  0  0  0  0
    4.3540   -7.5977    0.5449 C   0  0  0  0  0  0  0  0  0  0  0  0
    4.3351   -8.2642   -0.8319 C   0  0  0  0  0  0  0  0  0  0  0  0
    2.9347   -5.5055    0.2407 C   0  0  0  0  0  0  0  0  0  0  0  0
    3.9904   -4.7976   -0.5609 C   0  0  0  0  0  0  0  0  0  0  0  0
    1.7301   -4.8335    0.4622 C   0  0  0  0  0  0  0  0  0  0  0  0
    1.5269   -3.4575   -0.0401 C   0  0  0  0  0  0  0  0  0  0  0  0
    1.0070   -3.1638   -1.2274 C   0  0  0  0  0  0  0  0  0  0  0  0
    0.6476   -1.8129   -1.6769 C   0  0  0  0  0  0  0  0  0  0  0  0
    1.4871   -0.7076   -1.5067 C   0  0  0  0  0  0  0  0  0  0  0  0
    2.8908   -0.8229   -0.9875 C   0  0  0  0  0  0  0  0  0  0  0  0
    1.0208    0.5470   -1.8654 C   0  0  0  0  0  0  0  0  0  0  0  0
   -0.2536    0.7537   -2.3677 C   0  0  0  0  0  0  0  0  0  0  0  0
   -0.6734    2.1554   -2.7181 C   0  0  0  0  0  0  0  0  0  0  0  0
   -0.2495    2.5166   -4.1429 C   0  0  0  0  0  0  0  0  0  0  0  0
   -1.0815   -0.3487   -2.5797 C   0  0  0  0  0  0  0  0  0  0  0  0
   -2.4633   -0.1749   -3.1456 C   0  0  0  0  0  0  0  0  0  0  0  0
   -0.6198   -1.6231   -2.2513 C   0  0  0  0  0  0  0  0  0  0  0  0
   -1.5144   -2.7782   -2.4846 C   0  0  0  0  0  0  0  0  0  0  0  0
   -1.3509   -3.6593   -3.4559 C   0  0  0  0  0  0  0  0  0  0  0  0
    5.5917    2.1993    0.6313 H   0  0  0  0  0  0  0  0  0  0  0  0
    8.6387    2.8546    0.6617 H   0  0  0  0  0  0  0  0  0  0  0  0
    7.8727    1.2735    0.8016 H   0  0  0  0  0  0  0  0  0  0  0  0
    9.0559    1.5783   -0.4801 H   0  0  0  0  0  0  0  0  0  0  0  0
    8.4309    2.9181   -2.4538 H   0  0  0  0  0  0  0  0  0  0  0  0
    6.0771    4.4488   -4.7658 H   0  0  0  0  0  0  0  0  0  0  0  0
    7.7660    4.2189   -4.3226 H   0  0  0  0  0  0  0  0  0  0  0  0
    7.1684    2.8061   -6.2750 H   0  0  0  0  0  0  0  0  0  0  0  0
    7.6191    1.8094   -4.8873 H   0  0  0  0  0  0  0  0  0  0  0  0
    5.9238    1.9921   -5.3219 H   0  0  0  0  0  0  0  0  0  0  0  0
    4.1671    3.2610   -4.4593 H   0  0  0  0  0  0  0  0  0  0  0  0
    3.0176    3.2947   -3.1268 H   0  0  0  0  0  0  0  0  0  0  0  0
    3.8699    4.7671   -3.5980 H   0  0  0  0  0  0  0  0  0  0  0  0
    3.2649    2.2617    0.1430 H   0  0  0  0  0  0  0  0  0  0  0  0
    2.7463    4.8321   -1.4196 H   0  0  0  0  0  0  0  0  0  0  0  0
    1.1100    6.3516   -1.6601 H   0  0  0  0  0  0  0  0  0  0  0  0
    0.0316    8.2802   -2.5016 H   0  0  0  0  0  0  0  0  0  0  0  0
   -1.1093    8.9946   -1.3467 H   0  0  0  0  0  0  0  0  0  0  0  0
   -1.7183    8.0752   -2.7102 H   0  0  0  0  0  0  0  0  0  0  0  0
   -4.7223    6.2208   -0.1404 H   0  0  0  0  0  0  0  0  0  0  0  0
   -4.9392    7.9881   -0.0904 H   0  0  0  0  0  0  0  0  0  0  0  0
   -4.0980    7.1612    1.2444 H   0  0  0  0  0  0  0  0  0  0  0  0
   -2.9531    5.1399    0.9331 H   0  0  0  0  0  0  0  0  0  0  0  0
   -2.7690    3.1290    1.9369 H   0  0  0  0  0  0  0  0  0  0  0  0
   -0.4784    1.2473    2.6323 H   0  0  0  0  0  0  0  0  0  0  0  0
   -3.8482    3.0527    5.5459 H   0  0  0  0  0  0  0  0  0  0  0  0
   -4.2069    3.3342    3.8481 H   0  0  0  0  0  0  0  0  0  0  0  0
   -2.5300    3.3503    4.4017 H   0  0  0  0  0  0  0  0  0  0  0  0
   -5.0741    0.9898    5.5409 H   0  0  0  0  0  0  0  0  0  0  0  0
   -5.4640   -2.5898    5.0092 H   0  0  0  0  0  0  0  0  0  0  0  0
   -6.2221   -1.0969    5.5609 H   0  0  0  0  0  0  0  0  0  0  0  0
   -3.8809   -2.4696    6.9687 H   0  0  0  0  0  0  0  0  0  0  0  0
   -4.6756   -0.9904    7.4959 H   0  0  0  0  0  0  0  0  0  0  0  0
   -5.5677   -2.5157    7.4903 H   0  0  0  0  0  0  0  0  0  0  0  0
   -3.8952   -3.3088    3.2401 H   0  0  0  0  0  0  0  0  0  0  0  0
   -2.1669   -3.1847    3.5404 H   0  0  0  0  0  0  0  0  0  0  0  0
   -3.2809   -3.3565    4.8953 H   0  0  0  0  0  0  0  0  0  0  0  0
   -0.3233   -0.7950    2.6439 H   0  0  0  0  0  0  0  0  0  0  0  0
   -0.6152   -2.1727    0.7838 H   0  0  0  0  0  0  0  0  0  0  0  0
   -2.9217    0.1980    0.6108 H   0  0  0  0  0  0  0  0  0  0  0  0
   -4.5624    0.1959   -0.0584 H   0  0  0  0  0  0  0  0  0  0  0  0
   -4.3199    0.0960    1.6822 H   0  0  0  0  0  0  0  0  0  0  0  0
   -5.9404   -1.7760    0.0274 H   0  0  0  0  0  0  0  0  0  0  0  0
   -7.2220   -3.6620   -0.1859 H   0  0  0  0  0  0  0  0  0  0  0  0
   -6.5897   -5.2899    0.0309 H   0  0  0  0  0  0  0  0  0  0  0  0
   -7.3847   -4.9383   -2.3016 H   0  0  0  0  0  0  0  0  0  0  0  0
   -5.6404   -5.2143   -2.2917 H   0  0  0  0  0  0  0  0  0  0  0  0
   -6.2695   -3.5798   -2.4843 H   0  0  0  0  0  0  0  0  0  0  0  0
   -3.4515   -6.1504   -1.1274 H   0  0  0  0  0  0  0  0  0  0  0  0
   -3.2581   -6.4512    0.5965 H   0  0  0  0  0  0  0  0  0  0  0  0
   -4.8709   -6.4055   -0.1160 H   0  0  0  0  0  0  0  0  0  0  0  0
   -1.3487   -5.1541   -0.4350 H   0  0  0  0  0  0  0  0  0  0  0  0
   -0.6735   -4.2092    2.3825 H   0  0  0  0  0  0  0  0  0  0  0  0
    0.0867   -8.3116    2.9019 H   0  0  0  0  0  0  0  0  0  0  0  0
   -0.4904   -6.7087    3.3812 H   0  0  0  0  0  0  0  0  0  0  0  0
   -1.1097   -7.4585    1.9172 H   0  0  0  0  0  0  0  0  0  0  0  0
    2.2139   -8.3463    1.9149 H   0  0  0  0  0  0  0  0  0  0  0  0
    4.4150   -8.3731    1.3116 H   0  0  0  0  0  0  0  0  0  0  0  0
    5.2456   -6.9752    0.6406 H   0  0  0  0  0  0  0  0  0  0  0  0
    5.2358   -8.8559   -0.9819 H   0  0  0  0  0  0  0  0  0  0  0  0
    3.4712   -8.9198   -0.9173 H   0  0  0  0  0  0  0  0  0  0  0  0
    4.2737   -7.5181   -1.6201 H   0  0  0  0  0  0  0  0  0  0  0  0
    3.6396   -4.6360   -1.5801 H   0  0  0  0  0  0  0  0  0  0  0  0
    4.9205   -5.3534   -0.6034 H   0  0  0  0  0  0  0  0  0  0  0  0
    4.1932   -3.8200   -0.1237 H   0  0  0  0  0  0  0  0  0  0  0  0
    1.7723   -2.6719    0.6649 H   0  0  0  0  0  0  0  0  0  0  0  0
    0.7311   -3.9746   -1.8882 H   0  0  0  0  0  0  0  0  0  0  0  0
    2.9185   -0.6453    0.0880 H   0  0  0  0  0  0  0  0  0  0  0  0
    3.3023   -1.8094   -1.1832 H   0  0  0  0  0  0  0  0  0  0  0  0
    3.5251   -0.0746   -1.4603 H   0  0  0  0  0  0  0  0  0  0  0  0
    1.6771    1.3967   -1.7394 H   0  0  0  0  0  0  0  0  0  0  0  0
   -1.7522    2.2731   -2.6135 H   0  0  0  0  0  0  0  0  0  0  0  0
   -0.1964    2.8545   -2.0294 H   0  0  0  0  0  0  0  0  0  0  0  0
   -0.7152    1.8521   -4.8674 H   0  0  0  0  0  0  0  0  0  0  0  0
    0.8293    2.4247   -4.2476 H   0  0  0  0  0  0  0  0  0  0  0  0
   -0.5352    3.5403   -4.3756 H   0  0  0  0  0  0  0  0  0  0  0  0
   -3.1273    0.2392   -2.3859 H   0  0  0  0  0  0  0  0  0  0  0  0
   -2.8700   -1.1288   -3.4697 H   0  0  0  0  0  0  0  0  0  0  0  0
   -2.4571    0.5016   -3.9969 H   0  0  0  0  0  0  0  0  0  0  0  0
   -2.3585   -2.8583   -1.8106 H   0  0  0  0  0  0  0  0  0  0  0  0
   -2.0335   -4.4807   -3.6020 H   0  0  0  0  0  0  0  0  0  0  0  0
   -0.5287   -3.5936   -4.1508 H   0  0  0  0  0  0  0  0  0  0  0  0
  1  2  2  0  0  0  0
  2  3  1  0  0  0  0
  2  4  1  0  0  0  0
  4  5  2  0  0  0  0
  5  6  1  0  0  0  0
  6  7  1  0  0  0  0
  5  8  1  0  0  0  0
  8  9  1  0  0  0  0
  8 10  2  0  0  0  0
 10 11  1  0  0  0  0
 11 12  2  0  0  0  0
 12 13  1  0  0  0  0
 13 14  1  0  0  0  0
 14 15  1  0  0  0  0
 15 16  2  0  0  0  0
 16 17  1  0  0  0  0
 17 18  1  0  0  0  0
 18 19  2  0  0  0  0
 19 20  1  0  0  0  0
 19 21  1  0  0  0  0
 21 22  1  0  0  0  0
 22 23  1  0  0  0  0
 21 24  2  0  0  0  0
 15 25  1  0  0  0  0
 25 26  2  0  0  0  0
 26 27  1  0  0  0  0
 27 28  2  0  0  0  0
 28 29  1  0  0  0  0
 28 30  1  0  0  0  0
 30 31  2  0  0  0  0
 31 32  1  0  0  0  0
 32 33  1  0  0  0  0
 31 34  1  0  0  0  0
 34 35  1  0  0  0  0
 34 36  2  0  0  0  0
 36 37  1  0  0  0  0
 37 38  2  0  0  0  0
 38 39  1  0  0  0  0
 39 40  2  0  0  0  0
 40 41  1  0  0  0  0
 40 42  1  0  0  0  0
 42 43  2  0  0  0  0
 43 44  1  0  0  0  0
 44 45  1  0  0  0  0
 43 46  1  0  0  0  0
 46 47  1  0  0  0  0
 46 48  2  0  0  0  0
 48 49  1  0  0  0  0
 49 50  2  0  0  0  0
 50 51  1  0  0  0  0
 51 52  2  0  0  0  0
 52 53  1  0  0  0  0
 52 54  1  0  0  0  0
 54 55  2  0  0  0  0
 55 56  1  0  0  0  0
 56 57  1  0  0  0  0
 55 58  1  0  0  0  0
 58 59  1  0  0  0  0
 58 60  2  0  0  0  0
 60 61  1  0  0  0  0
 61 62  2  0  0  0  0
 62 63  1  0  0  0  0
 63 64  2  0  0  0  0
 64 65  1  0  0  0  0
 64 66  1  0  0  0  0
 66 67  2  0  0  0  0
 67 68  1  0  0  0  0
 68 69  1  0  0  0  0
 67 70  1  0  0  0  0
 70 71  1  0  0  0  0
 70 72  2  0  0  0  0
 72 73  1  0  0  0  0
 73 74  2  0  0  0  0
 10  1  1  0  0  0  0
 17 13  2  0  0  0  0
 36 27  1  0  0  0  0
 48 39  1  0  0  0  0
 60 51  1  0  0  0  0
 72 63  1  0  0  0  0
 24 16  1  0  0  0  0
  1 75  1  0  0  0  0
  3 76  1  0  0  0  0
  3 77  1  0  0  0  0
  3 78  1  0  0  0  0
  4 79  1  0  0  0  0
  6 80  1  0  0  0  0
  6 81  1  0  0  0  0
  7 82  1  0  0  0  0
  7 83  1  0  0  0  0
  7 84  1  0  0  0  0
  9 85  1  0  0  0  0
  9 86  1  0  0  0  0
  9 87  1  0  0  0  0
 11 88  1  0  0  0  0
 12 89  1  0  0  0  0
 18 90  1  0  0  0  0
 20 91  1  0  0  0  0
 20 92  1  0  0  0  0
 20 93  1  0  0  0  0
 23 94  1  0  0  0  0
 23 95  1  0  0  0  0
 23 96  1  0  0  0  0
 24 97  1  0  0  0  0
 25 98  1  0  0  0  0
 26 99  1  0  0  0  0
 29100  1  0  0  0  0
 29101  1  0  0  0  0
 29102  1  0  0  0  0
 30103  1  0  0  0  0
 32104  1  0  0  0  0
 32105  1  0  0  0  0
 33106  1  0  0  0  0
 33107  1  0  0  0  0
 33108  1  0  0  0  0
 35109  1  0  0  0  0
 35110  1  0  0  0  0
 35111  1  0  0  0  0
 37112  1  0  0  0  0
 38113  1  0  0  0  0
 41114  1  0  0  0  0
 41115  1  0  0  0  0
 41116  1  0  0  0  0
 42117  1  0  0  0  0
 44118  1  0  0  0  0
 44119  1  0  0  0  0
 45120  1  0  0  0  0
 45121  1  0  0  0  0
 45122  1  0  0  0  0
 47123  1  0  0  0  0
 47124  1  0  0  0  0
 47125  1  0  0  0  0
 49126  1  0  0  0  0
 50127  1  0  0  0  0
 53128  1  0  0  0  0
 53129  1  0  0  0  0
 53130  1  0  0  0  0
 54131  1  0  0  0  0
 56132  1  0  0  0  0
 56133  1  0  0  0  0
 57134  1  0  0  0  0
 57135  1  0  0  0  0
 57136  1  0  0  0  0
 59137  1  0  0  0  0
 59138  1  0  0  0  0
 59139  1  0  0  0  0
 61140  1  0  0  0  0
 62141  1  0  0  0  0
 65142  1  0  0  0  0
 65143  1  0  0  0  0
 65144  1  0  0  0  0
 66145  1  0  0  0  0
 68146  1  0  0  0  0
 68147  1  0  0  0  0
 69148  1  0  0  0  0
 69149  1  0  0  0  0
 69150  1  0  0  0  0
 71151  1  0  0  0  0
 71152  1  0  0  0  0
 71153  1  0  0  0  0
 73154  1  0  0  0  0
 74155  1  0  0  0  0
 74156  1  0  0  0  0
M  END
