
  xtb     03042217313D
 energy: -278.891919456586 gnorm: 0.000962396540 xtb: 6.4.1 (unknown)
172186  0     0  0            999 V2000
   -4.2819    0.8148    9.7592 C   0  0  0  0  0  0  0  0  0  0  0  0
   -5.7662   -0.0243    9.8009 S   0  0  0  0  0  0  0  0  0  0  0  0
   -5.1077   -1.4029    8.9640 C   0  0  0  0  0  0  0  0  0  0  0  0
   -3.7458   -1.2128    8.7340 C   0  0  0  0  0  0  0  0  0  0  0  0
   -3.2854    0.0734    9.1654 C   0  0  0  0  0  0  0  0  0  0  0  0
   -1.9340    0.4372    8.9476 C   0  0  0  0  0  0  0  0  0  0  0  0
   -1.0732   -0.4272    8.3457 C   0  0  0  0  0  0  0  0  0  0  0  0
    0.3533   -0.0740    8.0705 C   0  0  0  0  0  0  0  0  0  0  0  0
   -1.5262   -1.7366    7.9716 C   0  0  0  0  0  0  0  0  0  0  0  0
   -0.5677   -2.5199    7.4064 O   0  0  0  0  0  0  0  0  0  0  0  0
   -0.9285   -3.7970    6.9433 C   0  0  0  0  0  0  0  0  0  0  0  0
   -2.8213   -2.1260    8.1814 C   0  0  0  0  0  0  0  0  0  0  0  0
   -5.9683   -2.5060    8.6843 C   0  0  0  0  0  0  0  0  0  0  0  0
   -5.9263   -3.3671    7.6370 C   0  0  0  0  0  0  0  0  0  0  0  0
   -5.1626   -3.2783    6.4411 C   0  0  0  0  0  0  0  0  0  0  0  0
   -4.5600   -1.7876    5.8081 S   0  0  0  0  0  0  0  0  0  0  0  0
   -3.7988   -2.5538    4.4409 C   0  0  0  0  0  0  0  0  0  0  0  0
   -4.0778   -3.9295    4.4388 C   0  0  0  0  0  0  0  0  0  0  0  0
   -4.8484   -4.3334    5.5708 C   0  0  0  0  0  0  0  0  0  0  0  0
   -5.1794   -5.6945    5.7321 C   0  0  0  0  0  0  0  0  0  0  0  0
   -4.8068   -6.6211    4.8032 C   0  0  0  0  0  0  0  0  0  0  0  0
   -5.1478   -8.0700    4.9414 C   0  0  0  0  0  0  0  0  0  0  0  0
   -4.0828   -6.2025    3.6446 C   0  0  0  0  0  0  0  0  0  0  0  0
   -3.7942   -7.2043    2.7687 O   0  0  0  0  0  0  0  0  0  0  0  0
   -3.0666   -6.8927    1.6068 C   0  0  0  0  0  0  0  0  0  0  0  0
   -3.7289   -4.8899    3.4680 C   0  0  0  0  0  0  0  0  0  0  0  0
   -2.9910   -1.7265    3.6279 C   0  0  0  0  0  0  0  0  0  0  0  0
   -2.0333   -2.1097    2.7467 C   0  0  0  0  0  0  0  0  0  0  0  0
   -1.2285   -1.2052    2.0017 C   0  0  0  0  0  0  0  0  0  0  0  0
   -1.2393    0.1627    1.9579 C   0  0  0  0  0  0  0  0  0  0  0  0
   -0.2672    0.7181    1.0940 C   0  0  0  0  0  0  0  0  0  0  0  0
   -0.0471    2.0787    0.8069 C   0  0  0  0  0  0  0  0  0  0  0  0
   -0.9095    3.1241    1.3688 C   0  0  0  0  0  0  0  0  0  0  0  0
   -0.3701    4.2498    1.9885 C   0  0  0  0  0  0  0  0  0  0  0  0
   -1.1909    5.2103    2.5400 C   0  0  0  0  0  0  0  0  0  0  0  0
   -2.5781    5.0996    2.4810 C   0  0  0  0  0  0  0  0  0  0  0  0
   -3.5418    6.3968    3.2042 S   0  0  0  0  0  0  0  0  0  0  0  0
   -4.8751    5.4951    4.0792 C   0  0  0  0  0  0  0  0  0  0  0  0
   -4.3259    4.5075    5.0890 C   0  0  0  0  0  0  0  0  0  0  0  0
   -3.1034    3.9952    1.8181 C   0  0  0  0  0  0  0  0  0  0  0  0
   -4.4399    3.8456    1.6704 F   0  0  0  0  0  0  0  0  0  0  0  0
   -2.2946    3.0123    1.2865 C   0  0  0  0  0  0  0  0  0  0  0  0
    0.9971    2.3714   -0.0537 C   0  0  0  0  0  0  0  0  0  0  0  0
    1.8179    1.3789   -0.6497 C   0  0  0  0  0  0  0  0  0  0  0  0
    1.5847    0.0137   -0.3860 C   0  0  0  0  0  0  0  0  0  0  0  0
    2.3719   -1.0434   -1.0300 C   0  0  0  0  0  0  0  0  0  0  0  0
    2.6922   -0.9831   -2.3842 C   0  0  0  0  0  0  0  0  0  0  0  0
    3.4204   -1.9820   -3.0004 C   0  0  0  0  0  0  0  0  0  0  0  0
    3.8460   -3.0960   -2.2884 C   0  0  0  0  0  0  0  0  0  0  0  0
    4.7519   -4.4523   -2.9513 S   0  0  0  0  0  0  0  0  0  0  0  0
    5.3029   -3.8694   -4.5893 C   0  0  0  0  0  0  0  0  0  0  0  0
    6.3916   -2.8178   -4.4932 C   0  0  0  0  0  0  0  0  0  0  0  0
    3.5062   -3.1554   -0.9363 C   0  0  0  0  0  0  0  0  0  0  0  0
    2.7991   -2.1581   -0.3068 C   0  0  0  0  0  0  0  0  0  0  0  0
    3.8958   -4.2261   -0.2122 F   0  0  0  0  0  0  0  0  0  0  0  0
    0.5465   -0.2748    0.4894 C   0  0  0  0  0  0  0  0  0  0  0  0
    0.0201   -1.8680    0.9597 S   0  0  0  0  0  0  0  0  0  0  0  0
    2.7819    1.9526   -1.5079 C   0  0  0  0  0  0  0  0  0  0  0  0
    2.6809    3.3108   -1.6455 C   0  0  0  0  0  0  0  0  0  0  0  0
    1.4198    3.9695   -0.6181 S   0  0  0  0  0  0  0  0  0  0  0  0
    3.3358    4.0858   -2.6368 C   0  0  0  0  0  0  0  0  0  0  0  0
    4.0417    3.2269   -3.9701 S   0  0  0  0  0  0  0  0  0  0  0  0
    4.1733    4.6549   -4.9399 C   0  0  0  0  0  0  0  0  0  0  0  0
    3.8352    5.7785   -4.1922 C   0  0  0  0  0  0  0  0  0  0  0  0
    3.3349    5.4571   -2.8899 C   0  0  0  0  0  0  0  0  0  0  0  0
    2.8810    6.5009   -2.0566 C   0  0  0  0  0  0  0  0  0  0  0  0
    2.9023    7.7947   -2.4847 C   0  0  0  0  0  0  0  0  0  0  0  0
    2.4255    8.9200   -1.6248 C   0  0  0  0  0  0  0  0  0  0  0  0
    3.3931    8.1064   -3.7948 C   0  0  0  0  0  0  0  0  0  0  0  0
    3.3632    9.4331   -4.1024 O   0  0  0  0  0  0  0  0  0  0  0  0
    3.8409    9.8406   -5.3592 C   0  0  0  0  0  0  0  0  0  0  0  0
    3.8452    7.1216   -4.6292 C   0  0  0  0  0  0  0  0  0  0  0  0
    4.4419    4.5495   -6.3503 C   0  0  0  0  0  0  0  0  0  0  0  0
    3.8796    3.6138   -7.1466 C   0  0  0  0  0  0  0  0  0  0  0  0
    2.8497    2.7086   -6.7137 C   0  0  0  0  0  0  0  0  0  0  0  0
    2.9459    1.0169   -7.0487 S   0  0  0  0  0  0  0  0  0  0  0  0
    1.6469    0.6148   -5.9502 C   0  0  0  0  0  0  0  0  0  0  0  0
    1.1045    1.7909   -5.4023 C   0  0  0  0  0  0  0  0  0  0  0  0
    1.7644    2.9671   -5.8736 C   0  0  0  0  0  0  0  0  0  0  0  0
    1.3095    4.2396   -5.4601 C   0  0  0  0  0  0  0  0  0  0  0  0
    0.3416    4.3597   -4.5108 C   0  0  0  0  0  0  0  0  0  0  0  0
   -0.1133    5.6866   -3.9975 C   0  0  0  0  0  0  0  0  0  0  0  0
   -0.2602    3.1782   -3.9764 C   0  0  0  0  0  0  0  0  0  0  0  0
   -1.1936    3.4118   -3.0147 O   0  0  0  0  0  0  0  0  0  0  0  0
   -1.8466    2.3191   -2.4214 C   0  0  0  0  0  0  0  0  0  0  0  0
    0.0810    1.9350   -4.4431 C   0  0  0  0  0  0  0  0  0  0  0  0
    1.4657   -0.7648   -5.7072 C   0  0  0  0  0  0  0  0  0  0  0  0
    0.6561   -1.3646   -4.7901 C   0  0  0  0  0  0  0  0  0  0  0  0
    0.7146   -2.7165   -4.3811 C   0  0  0  0  0  0  0  0  0  0  0  0
    0.0436   -3.0756   -2.8146 S   0  0  0  0  0  0  0  0  0  0  0  0
    0.7335   -4.6609   -2.7702 C   0  0  0  0  0  0  0  0  0  0  0  0
    1.4164   -4.9261   -3.9603 C   0  0  0  0  0  0  0  0  0  0  0  0
    1.3779   -3.8426   -4.8911 C   0  0  0  0  0  0  0  0  0  0  0  0
    1.9525   -4.0293   -6.1658 C   0  0  0  0  0  0  0  0  0  0  0  0
    2.6197   -5.1794   -6.4763 C   0  0  0  0  0  0  0  0  0  0  0  0
    3.2449   -5.3943   -7.8178 C   0  0  0  0  0  0  0  0  0  0  0  0
    2.7409   -6.2151   -5.4987 C   0  0  0  0  0  0  0  0  0  0  0  0
    3.4887   -7.2830   -5.8959 O   0  0  0  0  0  0  0  0  0  0  0  0
    3.7288   -8.3083   -4.9643 C   0  0  0  0  0  0  0  0  0  0  0  0
    2.1240   -6.1032   -4.2827 C   0  0  0  0  0  0  0  0  0  0  0  0
    0.5966   -5.5096   -1.6318 C   0  0  0  0  0  0  0  0  0  0  0  0
   -0.1006   -5.2174   -0.5322 C   0  0  0  0  0  0  0  0  0  0  0  0
   -4.2183    1.8059   10.1619 H   0  0  0  0  0  0  0  0  0  0  0  0
   -1.5997    1.4146    9.2627 H   0  0  0  0  0  0  0  0  0  0  0  0
    0.5737    0.9367    8.4029 H   0  0  0  0  0  0  0  0  0  0  0  0
    1.0165   -0.7724    8.5782 H   0  0  0  0  0  0  0  0  0  0  0  0
    0.5556   -0.1539    7.0035 H   0  0  0  0  0  0  0  0  0  0  0  0
   -1.7196   -3.7442    6.1882 H   0  0  0  0  0  0  0  0  0  0  0  0
   -1.2545   -4.4469    7.7621 H   0  0  0  0  0  0  0  0  0  0  0  0
   -0.0285   -4.2117    6.4920 H   0  0  0  0  0  0  0  0  0  0  0  0
   -3.1545   -3.1228    7.9462 H   0  0  0  0  0  0  0  0  0  0  0  0
   -6.7588   -2.6556    9.4102 H   0  0  0  0  0  0  0  0  0  0  0  0
   -6.5854   -4.2254    7.6830 H   0  0  0  0  0  0  0  0  0  0  0  0
   -5.7409   -6.0035    6.6008 H   0  0  0  0  0  0  0  0  0  0  0  0
   -5.7529   -8.3927    4.0956 H   0  0  0  0  0  0  0  0  0  0  0  0
   -4.2390   -8.6698    4.9353 H   0  0  0  0  0  0  0  0  0  0  0  0
   -5.6931   -8.2542    5.8630 H   0  0  0  0  0  0  0  0  0  0  0  0
   -2.9376   -7.8349    1.0766 H   0  0  0  0  0  0  0  0  0  0  0  0
   -3.6079   -6.1895    0.9659 H   0  0  0  0  0  0  0  0  0  0  0  0
   -2.0839   -6.4766    1.8504 H   0  0  0  0  0  0  0  0  0  0  0  0
   -3.2163   -4.5718    2.5781 H   0  0  0  0  0  0  0  0  0  0  0  0
   -3.1283   -0.6662    3.7993 H   0  0  0  0  0  0  0  0  0  0  0  0
   -1.8045   -3.1540    2.6035 H   0  0  0  0  0  0  0  0  0  0  0  0
   -1.9096    0.7628    2.5447 H   0  0  0  0  0  0  0  0  0  0  0  0
    0.7008    4.3542    2.0666 H   0  0  0  0  0  0  0  0  0  0  0  0
   -0.7690    6.0696    3.0375 H   0  0  0  0  0  0  0  0  0  0  0  0
   -5.5170    5.0130    3.3452 H   0  0  0  0  0  0  0  0  0  0  0  0
   -5.4342    6.2909    4.5710 H   0  0  0  0  0  0  0  0  0  0  0  0
   -3.7602    3.7199    4.5944 H   0  0  0  0  0  0  0  0  0  0  0  0
   -5.1461    4.0475    5.6365 H   0  0  0  0  0  0  0  0  0  0  0  0
   -3.6698    5.0096    5.7970 H   0  0  0  0  0  0  0  0  0  0  0  0
   -2.7565    2.1759    0.7842 H   0  0  0  0  0  0  0  0  0  0  0  0
    2.3348   -0.1620   -2.9853 H   0  0  0  0  0  0  0  0  0  0  0  0
    3.6329   -1.8883   -4.0525 H   0  0  0  0  0  0  0  0  0  0  0  0
    5.6775   -4.7741   -5.0686 H   0  0  0  0  0  0  0  0  0  0  0  0
    4.4311   -3.5234   -5.1426 H   0  0  0  0  0  0  0  0  0  0  0  0
    6.7096   -2.5236   -5.4916 H   0  0  0  0  0  0  0  0  0  0  0  0
    7.2505   -3.2128   -3.9553 H   0  0  0  0  0  0  0  0  0  0  0  0
    6.0358   -1.9336   -3.9686 H   0  0  0  0  0  0  0  0  0  0  0  0
    2.6050   -2.2520    0.7493 H   0  0  0  0  0  0  0  0  0  0  0  0
    3.5353    1.3887   -2.0266 H   0  0  0  0  0  0  0  0  0  0  0  0
    2.5200    6.2681   -1.0665 H   0  0  0  0  0  0  0  0  0  0  0  0
    1.6157    9.4515   -2.1221 H   0  0  0  0  0  0  0  0  0  0  0  0
    3.2303    9.6357   -1.4637 H   0  0  0  0  0  0  0  0  0  0  0  0
    2.0749    8.5504   -0.6653 H   0  0  0  0  0  0  0  0  0  0  0  0
    4.8970    9.5827   -5.4906 H   0  0  0  0  0  0  0  0  0  0  0  0
    3.2569    9.3999   -6.1741 H   0  0  0  0  0  0  0  0  0  0  0  0
    3.7292   10.9234   -5.3814 H   0  0  0  0  0  0  0  0  0  0  0  0
    4.2196    7.3365   -5.6171 H   0  0  0  0  0  0  0  0  0  0  0  0
    5.1275    5.2684   -6.7806 H   0  0  0  0  0  0  0  0  0  0  0  0
    4.2311    3.5041   -8.1646 H   0  0  0  0  0  0  0  0  0  0  0  0
    1.7508    5.1209   -5.8991 H   0  0  0  0  0  0  0  0  0  0  0  0
    0.0530    5.7405   -2.9224 H   0  0  0  0  0  0  0  0  0  0  0  0
    0.4302    6.4941   -4.4809 H   0  0  0  0  0  0  0  0  0  0  0  0
   -1.1811    5.8125   -4.1686 H   0  0  0  0  0  0  0  0  0  0  0  0
   -2.5158    2.7505   -1.6788 H   0  0  0  0  0  0  0  0  0  0  0  0
   -2.4340    1.7537   -3.1527 H   0  0  0  0  0  0  0  0  0  0  0  0
   -1.1395    1.6458   -1.9244 H   0  0  0  0  0  0  0  0  0  0  0  0
   -0.4288    1.0641   -4.0741 H   0  0  0  0  0  0  0  0  0  0  0  0
    2.1454   -1.3894   -6.2695 H   0  0  0  0  0  0  0  0  0  0  0  0
   -0.0083   -0.7628   -4.1903 H   0  0  0  0  0  0  0  0  0  0  0  0
    1.8421   -3.2666   -6.9204 H   0  0  0  0  0  0  0  0  0  0  0  0
    4.3152   -5.5651   -7.7088 H   0  0  0  0  0  0  0  0  0  0  0  0
    2.8238   -6.2813   -8.2882 H   0  0  0  0  0  0  0  0  0  0  0  0
    3.0830   -4.5359   -8.4645 H   0  0  0  0  0  0  0  0  0  0  0  0
    4.2069   -7.9199   -4.0592 H   0  0  0  0  0  0  0  0  0  0  0  0
    2.8049   -8.8295   -4.6926 H   0  0  0  0  0  0  0  0  0  0  0  0
    4.4018   -9.0066   -5.4597 H   0  0  0  0  0  0  0  0  0  0  0  0
    2.1753   -6.8934   -3.5533 H   0  0  0  0  0  0  0  0  0  0  0  0
    1.1181   -6.4550   -1.6960 H   0  0  0  0  0  0  0  0  0  0  0  0
   -0.6257   -4.2826   -0.4313 H   0  0  0  0  0  0  0  0  0  0  0  0
   -0.1494   -5.9003    0.2966 H   0  0  0  0  0  0  0  0  0  0  0  0
  1  2  1  0  0  0  0
  2  3  1  0  0  0  0
  3  4  2  0  0  0  0
  4  5  1  0  0  0  0
  5  6  1  0  0  0  0
  6  7  2  0  0  0  0
  7  8  1  0  0  0  0
  7  9  1  0  0  0  0
  9 10  1  0  0  0  0
 10 11  1  0  0  0  0
  9 12  2  0  0  0  0
  3 13  1  0  0  0  0
 13 14  2  0  0  0  0
 14 15  1  0  0  0  0
 15 16  1  0  0  0  0
 16 17  1  0  0  0  0
 17 18  2  0  0  0  0
 18 19  1  0  0  0  0
 19 20  1  0  0  0  0
 20 21  2  0  0  0  0
 21 22  1  0  0  0  0
 21 23  1  0  0  0  0
 23 24  1  0  0  0  0
 24 25  1  0  0  0  0
 23 26  2  0  0  0  0
 17 27  1  0  0  0  0
 27 28  2  0  0  0  0
 28 29  1  0  0  0  0
 29 30  2  0  0  0  0
 30 31  1  0  0  0  0
 31 32  2  0  0  0  0
 32 33  1  0  0  0  0
 33 34  2  0  0  0  0
 34 35  1  0  0  0  0
 35 36  2  0  0  0  0
 36 37  1  0  0  0  0
 37 38  1  0  0  0  0
 38 39  1  0  0  0  0
 36 40  1  0  0  0  0
 40 41  1  0  0  0  0
 40 42  2  0  0  0  0
 32 43  1  0  0  0  0
 43 44  2  0  0  0  0
 44 45  1  0  0  0  0
 45 46  1  0  0  0  0
 46 47  2  0  0  0  0
 47 48  1  0  0  0  0
 48 49  2  0  0  0  0
 49 50  1  0  0  0  0
 50 51  1  0  0  0  0
 51 52  1  0  0  0  0
 49 53  1  0  0  0  0
 53 54  2  0  0  0  0
 53 55  1  0  0  0  0
 45 56  2  0  0  0  0
 56 57  1  0  0  0  0
 44 58  1  0  0  0  0
 58 59  2  0  0  0  0
 59 60  1  0  0  0  0
 59 61  1  0  0  0  0
 61 62  1  0  0  0  0
 62 63  1  0  0  0  0
 63 64  2  0  0  0  0
 64 65  1  0  0  0  0
 65 66  1  0  0  0  0
 66 67  2  0  0  0  0
 67 68  1  0  0  0  0
 67 69  1  0  0  0  0
 69 70  1  0  0  0  0
 70 71  1  0  0  0  0
 69 72  2  0  0  0  0
 63 73  1  0  0  0  0
 73 74  2  0  0  0  0
 74 75  1  0  0  0  0
 75 76  1  0  0  0  0
 76 77  1  0  0  0  0
 77 78  2  0  0  0  0
 78 79  1  0  0  0  0
 79 80  1  0  0  0  0
 80 81  2  0  0  0  0
 81 82  1  0  0  0  0
 81 83  1  0  0  0  0
 83 84  1  0  0  0  0
 84 85  1  0  0  0  0
 83 86  2  0  0  0  0
 77 87  1  0  0  0  0
 87 88  2  0  0  0  0
 88 89  1  0  0  0  0
 89 90  1  0  0  0  0
 90 91  1  0  0  0  0
 91 92  2  0  0  0  0
 92 93  1  0  0  0  0
 93 94  1  0  0  0  0
 94 95  2  0  0  0  0
 95 96  1  0  0  0  0
 95 97  1  0  0  0  0
 97 98  1  0  0  0  0
 98 99  1  0  0  0  0
 97100  2  0  0  0  0
 91101  1  0  0  0  0
101102  2  0  0  0  0
  5  1  2  0  0  0  0
 19 15  2  0  0  0  0
 57 29  1  0  0  0  0
 65 61  2  0  0  0  0
 79 75  2  0  0  0  0
 93 89  2  0  0  0  0
 12  4  1  0  0  0  0
 26 18  1  0  0  0  0
 56 31  1  0  0  0  0
 72 64  1  0  0  0  0
 86 78  1  0  0  0  0
100 92  1  0  0  0  0
 42 33  1  0  0  0  0
 60 43  1  0  0  0  0
 54 46  1  0  0  0  0
  1103  1  0  0  0  0
  6104  1  0  0  0  0
  8105  1  0  0  0  0
  8106  1  0  0  0  0
  8107  1  0  0  0  0
 11108  1  0  0  0  0
 11109  1  0  0  0  0
 11110  1  0  0  0  0
 12111  1  0  0  0  0
 13112  1  0  0  0  0
 14113  1  0  0  0  0
 20114  1  0  0  0  0
 22115  1  0  0  0  0
 22116  1  0  0  0  0
 22117  1  0  0  0  0
 25118  1  0  0  0  0
 25119  1  0  0  0  0
 25120  1  0  0  0  0
 26121  1  0  0  0  0
 27122  1  0  0  0  0
 28123  1  0  0  0  0
 30124  1  0  0  0  0
 34125  1  0  0  0  0
 35126  1  0  0  0  0
 38127  1  0  0  0  0
 38128  1  0  0  0  0
 39129  1  0  0  0  0
 39130  1  0  0  0  0
 39131  1  0  0  0  0
 42132  1  0  0  0  0
 47133  1  0  0  0  0
 48134  1  0  0  0  0
 51135  1  0  0  0  0
 51136  1  0  0  0  0
 52137  1  0  0  0  0
 52138  1  0  0  0  0
 52139  1  0  0  0  0
 54140  1  0  0  0  0
 58141  1  0  0  0  0
 66142  1  0  0  0  0
 68143  1  0  0  0  0
 68144  1  0  0  0  0
 68145  1  0  0  0  0
 71146  1  0  0  0  0
 71147  1  0  0  0  0
 71148  1  0  0  0  0
 72149  1  0  0  0  0
 73150  1  0  0  0  0
 74151  1  0  0  0  0
 80152  1  0  0  0  0
 82153  1  0  0  0  0
 82154  1  0  0  0  0
 82155  1  0  0  0  0
 85156  1  0  0  0  0
 85157  1  0  0  0  0
 85158  1  0  0  0  0
 86159  1  0  0  0  0
 87160  1  0  0  0  0
 88161  1  0  0  0  0
 94162  1  0  0  0  0
 96163  1  0  0  0  0
 96164  1  0  0  0  0
 96165  1  0  0  0  0
 99166  1  0  0  0  0
 99167  1  0  0  0  0
 99168  1  0  0  0  0
100169  1  0  0  0  0
101170  1  0  0  0  0
102171  1  0  0  0  0
102172  1  0  0  0  0
M  END
