141

C         -1.81460        0.64440       -8.02590
S         -2.21280        1.97930       -7.02930
C         -1.81690       -0.53590       -7.35120
C         -1.44290       -1.82610       -8.01120
C          0.02130       -2.18130       -7.72440
N          0.38360       -3.38800       -8.45050
C         -2.14230       -0.37620       -5.97100
C         -2.22940       -1.53090       -5.01890
C         -3.61690       -1.69320       -4.36440
N         -4.73800       -1.79600       -5.27690
C         -2.40020        0.93390       -5.64300
C         -2.69220        1.51090       -4.35540
S         -1.82050        0.93020       -2.96050
C         -3.53720        2.54250       -4.02230
C         -4.52280        3.15790       -4.96640
C         -5.93240        2.57500       -4.75670
N         -5.90200        1.12730       -4.88730
C         -3.49680        2.86680       -2.63670
C         -4.17380        4.05680       -2.02780
C         -3.32920        5.32080       -2.25490
N         -2.18260        5.30490       -1.36460
C         -2.65000        2.06050       -1.92740
C         -2.49200        1.93030       -0.49680
S         -0.94750        2.12950        0.26160
C         -3.45110        1.50560        0.38810
C         -4.83310        1.14070       -0.06600
C         -4.83660       -0.21240       -0.80080
N         -5.90240       -0.22690       -1.79160
C         -2.94220        1.33340        1.70300
C         -3.78820        1.01280        2.89380
C         -4.52750        2.27820        3.38260
N         -5.35170        2.07580        4.55580
C         -1.60000        1.60890        1.79070
C         -0.68820        1.36300        2.87470
S          0.45660        2.54490        3.40320
C          1.29220        1.40990        4.41150
C          0.66570        0.17200        4.37420
C         -0.45640        0.14010        3.49110
C         -1.13980       -1.08150        3.29020
C         -0.75730       -2.21170        3.94510
C         -1.47430       -3.50910        3.74650
C          0.36240       -2.16400        4.84170
O          0.68080       -3.36640        5.41660
C          1.78120       -3.41350        6.28950
C          1.04780       -1.00440        5.06100
C          2.47830        1.79050        5.14060
C          3.67240        1.17420        5.05800
C          4.07020        0.16420        4.12040
S          3.08450       -0.26170        2.75220
C          5.28600       -0.49040        4.07100
C          6.36020       -0.30710        5.09850
C          7.28270        0.86180        4.72610
N          8.22680        1.10020        5.80480
C          5.43410       -1.31240        2.92520
C          6.62730       -2.17030        2.64350
C          6.42780       -3.59090        3.21180
N          7.52160       -4.50540        2.95950
C          4.31880       -1.30990        2.12310
C          4.07090       -1.96770        0.86340
S          5.17070       -1.74330       -0.47480
C          2.97020       -2.69300        0.48630
C          1.93660       -3.18910        1.44850
C          2.35710       -4.57200        1.97060
N          1.31300       -5.13880        2.80520
C          3.00810       -3.07070       -0.88840
C          1.90810       -3.78480       -1.60590
C          0.88320       -2.77110       -2.16200
N         -0.22540       -3.36650       -2.88080
C          4.12930       -2.62610       -1.51510
H         -1.60550        0.80850       -9.06440
H         -1.56650       -1.73680       -9.09100
H         -2.08640       -2.63970       -7.66830
H          0.66030       -1.37160       -8.08780
H          0.17000       -2.26150       -6.63400
H         -0.15420       -4.17880       -8.11030
H          1.36600       -3.60080       -8.31890
H         -2.00260       -2.45110       -5.55800
H         -1.48630       -1.43320       -4.22470
H         -3.58990       -2.60420       -3.75630
H         -3.81420       -0.84920       -3.70370
H         -4.53600       -2.46870       -6.01000
H         -4.91050       -0.89570       -5.71480
H         -4.56230        4.23870       -4.82380
H         -4.22800        2.95760       -5.99380
H         -6.32970        2.90250       -3.78200
H         -6.58590        2.97730       -5.53630
H         -6.84580        0.76160       -4.94980
H         -5.49020        0.72240       -4.05100
H         -4.27010        3.92500       -0.95010
H         -5.16200        4.20370       -2.46180
H         -3.05480        5.39050       -3.32210
H         -3.92740        6.20130       -2.00120
H         -1.60320        6.12350       -1.51320
H         -1.61140        4.48500       -1.54350
H         -5.52160        1.10980        0.77790
H         -5.19810        1.88470       -0.77340
H         -4.90590       -1.03400       -0.06830
H         -3.89340       -0.33440       -1.33910
H         -6.80810       -0.18810       -1.33430
H         -5.86830       -1.08190       -2.33780
H         -4.51940        0.23890        2.64490
H         -3.16160        0.64340        3.70760
H         -3.78970        3.04880        3.62010
H         -5.16900        2.66290        2.58540
H         -4.78330        1.76430        5.33650
H         -6.05120        1.36160        4.37990
H         -1.96400       -1.11120        2.59400
H         -0.86420       -4.19050        3.15430
H         -1.66240       -3.98540        4.70640
H         -2.41840       -3.34540        3.23330
H          2.70820       -3.12070        5.78360
H          1.63040       -2.77110        7.16250
H          1.85790       -4.45020        6.61520
H          1.89360       -0.95040        5.72710
H          2.38970        2.65930        5.78140
H          4.46270        1.52010        5.71030
H          5.92630       -0.10240        6.07740
H          6.95430       -1.21830        5.18740
H          6.68390        1.76830        4.60180
H          7.76430        0.64890        3.75590
H          8.80530        1.90700        5.59930
H          8.84100        0.30020        5.92000
H          7.52460       -1.72790        3.08020
H          6.77990       -2.24330        1.56460
H          6.28090       -3.53550        4.29470
H          5.52570       -4.02320        2.76950
H          8.38420       -4.14380        3.35370
H          7.66300       -4.61460        1.96050
H          0.96450       -3.27180        0.96390
H          1.82980       -2.50550        2.29090
H          2.51340       -5.24760        1.12330
H          3.32520       -4.46760        2.49170
H          1.21790       -4.59880        3.66020
H          1.55390       -6.08750        3.07130
H          2.32630       -4.35690       -2.43900
H          1.40060       -4.47910       -0.93350
H          0.47080       -2.17870       -1.34140
H          1.39400       -2.08600       -2.84460
H          0.11920       -3.94170       -3.64310
H         -0.76470       -3.96560       -2.26430
H          4.41410       -2.76560       -2.53930
