250

C        -13.74820       -2.42360       12.68180
C        -13.36860       -1.20200       12.25550
C        -12.71380       -1.23230       10.98780
C        -12.17890       -0.15890       10.25830
C        -12.29750        1.22670       10.73100
C        -11.18040        2.05500       10.81870
C        -11.30140        3.35000       11.27440
C        -12.53680        3.87830       11.64470
S        -12.56720        5.56790       12.16660
C        -13.78150        5.59530       13.53710
C        -13.39340        4.65170       14.65760
C        -13.64820        3.05050       11.51840
F        -14.88810        3.50120       11.81440
C        -13.53860        1.74380       11.08770
C        -11.53140       -0.47220        9.07170
C        -11.44200       -1.79510        8.57560
C        -11.99720       -2.86480        9.29160
C        -11.89580       -4.22960        8.75510
C        -12.38870       -4.51980        7.48440
C        -12.21520       -5.77290        6.93420
C        -11.53510       -6.76730        7.62690
S        -11.27960       -8.34450        6.84940
C         -9.44770       -8.40530        6.84350
C         -8.85410       -7.29950        5.99330
C        -11.09000       -6.47970        8.91240
C        -11.26090       -5.23190        9.47920
F        -10.45110       -7.42120        9.63620
C        -12.60370       -2.55710       10.49790
S        -13.34020       -3.70150       11.58830
C        -10.70940       -1.86040        7.36500
C        -10.26510       -0.64930        6.92870
S        -10.74880        0.65830        7.99280
C         -9.44140       -0.41750        5.78810
C         -8.92400        0.75460        5.32490
C         -8.06450        0.59400        4.20650
C         -7.34080        1.58590        3.51990
C         -7.51790        3.00910        3.82840
C         -6.42840        3.84710        4.04220
C         -6.59960        5.19130        4.31340
C         -7.87200        5.74870        4.37230
S         -8.23740        7.43720        4.69640
C         -6.58380        8.20990        4.85130
C         -6.76600        9.69610        5.09620
C         -8.95710        4.89540        4.15530
F        -10.20500        5.40400        4.19950
C         -8.80010        3.55500        3.89160
C         -6.46350        1.14640        2.53810
C         -6.34370       -0.21680        2.17500
C         -7.11020       -1.20300        2.81620
C         -6.99480       -2.60720        2.40270
C         -7.14030       -2.95640        1.05970
C         -6.95050       -4.25650        0.64630
C         -6.60830       -5.25950        1.55160
S         -6.35070       -6.88720        0.92150
C         -4.91580       -7.47820        1.90700
C         -4.11270       -8.45320        1.07020
C         -6.52370       -4.90790        2.89580
C         -6.70270       -3.60740        3.32330
F         -6.25400       -5.84250        3.83510
C         -7.92970       -0.77050        3.84330
S         -8.91400       -1.79990        4.84470
C         -5.34910       -0.42240        1.19230
C         -4.72890        0.72380        0.78790
S         -5.37590        2.13780        1.59430
C         -3.61780        0.77920       -0.10720
C         -3.07730       -0.29500       -0.75270
C         -1.88860       -0.00040       -1.45900
C         -1.08120       -0.89620       -2.18050
C         -1.39820       -2.32830       -2.22200
C         -1.43830       -3.02700       -3.42430
C         -1.77400       -4.36700       -3.46350
C         -2.07500       -5.06160       -2.29750
S         -2.55790       -6.75250       -2.20370
C         -2.13520       -7.43670       -3.84080
C         -0.63730       -7.55240       -4.04790
C         -2.01850       -4.35140       -1.09690
F         -2.30630       -4.99100        0.05770
C         -1.68450       -3.01830       -1.04360
C          0.02810       -0.35570       -2.80950
C          0.36230        1.02110       -2.74300
C         -0.45100        1.91650       -2.02450
C         -0.14440        3.34980       -1.96990
C         -0.12700        4.03950       -0.76130
C          0.14930        5.39190       -0.71370
C          0.40520        6.10930       -1.87670
S          0.77740        7.82990       -1.94730
C          0.11220        8.48240       -0.37640
C         -1.40020        8.39100       -0.31080
C          0.39360        5.40380       -3.08120
C          0.12640        4.05500       -3.14200
F          0.64410        6.06200       -4.23050
C         -1.55110        1.37320       -1.37800
S         -2.70590        2.24510       -0.39760
C          1.59490        1.29320       -3.38730
C          2.18410        0.18950       -3.93330
S          1.22970       -1.25870       -3.69130
C          3.44260        0.11720       -4.60230
C          4.26280        1.15270       -4.94660
C          5.47880        0.74010       -5.54370
C          6.55080        1.54720       -5.96840
C          6.52200        3.00530       -5.80290
C          6.80060        3.85530       -6.87200
C          6.76680        5.22240       -6.70810
C          6.44860        5.80530       -5.48080
S          6.37900        7.56970       -5.44700
C          6.88320        8.04650       -3.75370
C          8.27860        7.56120       -3.41600
C          6.16060        4.94390       -4.42670
F          5.81700        5.41650       -3.20570
C          6.20940        3.57200       -4.57190
C          7.63270        0.89360       -6.53170
C          7.70070       -0.51540       -6.67670
C          6.63690       -1.32490       -6.23870
C          6.70240       -2.78610       -6.35080
C          7.83380       -3.48850       -5.94190
C          7.91380       -4.86090       -6.07800
C          6.85350       -5.58750       -6.60730
S          6.83470       -7.33190       -6.85580
C          8.21900       -7.93900       -5.83270
C          7.93390       -7.81020       -4.34830
C          5.72110       -4.87310       -7.00160
C          5.63440       -3.50440       -6.88570
F          4.67550       -5.54310       -7.52710
C          5.54570       -0.66860       -5.69050
S          4.12320       -1.43700       -5.03740
C          8.91620       -0.92400       -7.26450
C          9.79440        0.09750       -7.51750
S          9.10610        1.65370       -7.08310
C         11.12570       -0.07510       -7.96760
S         11.71040       -1.70480       -8.11180
C         13.33970       -1.19830       -8.40000
C         13.40430        0.20100       -8.47990
C         12.15340        0.83910       -8.22070
C         12.08870        2.24760       -8.23350
C         13.20120        2.99610       -8.48430
C         13.15960        4.48960       -8.51100
C         14.45240        2.34940       -8.73350
O         15.48790        3.20090       -8.96930
C         16.75720        2.65990       -9.23540
C         14.55070        0.98260       -8.72540
C         14.40970       -2.11580       -8.56440
C         14.50150       -3.40750       -8.15420
C         13.64990       -4.15280       -7.28610
S         13.52440       -5.86340       -7.54810
C         12.44040       -6.09860       -6.21700
C         12.17360       -4.88090       -5.58900
C         12.89510       -3.78950       -6.16770
C         12.80620       -2.51600       -5.56290
C         11.92990       -2.28290       -4.54520
C         11.76760       -0.92720       -3.93770
C         11.11880       -3.35380       -4.05290
O         10.24480       -2.98910       -3.07250
C          9.42870       -3.97440       -2.49170
C         11.26440       -4.62590       -4.53700
C         12.01020       -7.43940       -5.94050
C         11.60220       -7.92490       -4.76710
H        -14.25200       -2.67450       13.59480
H        -13.52620       -0.30010       12.81840
H        -10.20720        1.67130       10.55500
H        -10.43200        3.98360       11.35460
H        -13.75560        6.63270       13.87050
H        -14.77040        5.37540       13.14140
H        -14.09420        4.75550       15.48350
H        -13.41330        3.61750       14.31850
H        -12.39180        4.87750       15.01740
H        -14.43510        1.14970       10.99810
H        -12.90740       -3.75390        6.92780
H        -12.58760       -5.99580        5.94650
H         -9.09920       -8.36210        7.87370
H         -9.21900       -9.38730        6.43110
H         -9.09650       -6.32070        6.40490
H         -7.77120       -7.39820        5.95620
H         -9.24020       -7.35030        4.97760
H        -10.87940       -5.04730       10.47130
H        -10.49820       -2.77890        6.84680
H         -9.12660        1.70130        5.79330
H         -5.42890        3.44150        4.01780
H         -5.72810        5.80250        4.48010
H         -6.04120        8.03100        3.92290
H         -6.06760        7.73860        5.68800
H         -5.79510       10.17740        5.19280
H         -7.33210        9.86420        6.00930
H         -7.30320       10.15480        4.26950
H         -9.67370        2.94880        3.70990
H         -7.40530       -2.19710        0.33930
H         -7.04960       -4.52150       -0.39490
H         -5.29440       -7.94630        2.81510
H         -4.32060       -6.60220        2.15830
H         -4.72730       -9.29950        0.77130
H         -3.26830       -8.82080        1.64910
H         -3.73520       -7.96200        0.17650
H         -6.59520       -3.38590        4.37360
H         -5.08110       -1.39910        0.83590
H         -3.51870       -1.27320       -0.73460
H         -1.22890       -2.51110       -4.34870
H         -1.81210       -4.86260       -4.41970
H         -2.61880       -6.83080       -4.60610
H         -2.60370       -8.42100       -3.83200
H         -0.15670       -6.57740       -4.00110
H         -0.20060       -8.18660       -3.27990
H         -0.43200       -7.99320       -5.02130
H         -1.62630       -2.52930       -0.08360
H         -0.30810        3.50790        0.16020
H          0.17320        5.88390        0.24510
H          0.43900        9.52230       -0.37740
H          0.59690        7.96860        0.45280
H         -1.84440        8.92610       -1.14690
H         -1.75790        8.83490        0.61630
H         -1.73190        7.35540       -0.35120
H          0.10040        3.56740       -4.10400
H          2.04550        2.26810       -3.40740
H          4.00090        2.18310       -4.79340
H          7.03170        3.43890       -7.84010
H          6.98110        5.87630       -7.53900
H          6.84360        9.13560       -3.78460
H          6.14000        7.68640       -3.04620
H          8.99470        7.91470       -4.15500
H          8.31720        6.47410       -3.39040
H          8.56990        7.93730       -2.43740
H          6.00840        2.95420       -3.70990
H          8.66150       -2.95640       -5.49810
H          8.82300       -5.35900       -5.78230
H          8.30700       -8.98670       -6.11950
H          9.13270       -7.42410       -6.12740
H          7.76820       -6.77100       -4.07120
H          7.04420       -8.37750       -4.08560
H          8.77560       -8.19470       -3.77580
H          4.74280       -3.00710       -7.23270
H          9.15020       -1.94640       -7.49930
H         11.14560        2.73780       -8.05020
H         13.48570        4.85450       -9.48370
H         12.15540        4.85130       -8.30910
H         13.84470        4.89540       -7.76830
H         17.41470        3.51330       -9.39380
H         17.12820        2.06950       -8.39120
H         16.74830        2.03830      -10.13680
H         15.48890        0.48530       -8.90870
H         15.25210       -1.72770       -9.12430
H         15.33240       -3.97980       -8.55090
H         13.44810       -1.72150       -5.91020
H         12.46240       -0.21920       -4.38190
H         10.74990       -0.57100       -4.09460
H         11.93270       -0.97090       -2.86240
H         10.02380       -4.75990       -2.01430
H          8.75260       -4.42290       -3.22700
H          8.83990       -3.45990       -1.73390
H         10.67940       -5.44020       -4.14530
H         12.08790       -8.11470       -6.78480
H         11.31770       -8.95790       -4.66740
H         11.57580       -7.33150       -3.87080
