170

C          1.80500        5.24110        0.54160
C          0.53760        4.67100        0.55200
N          0.05110        3.61070        1.28420
C          0.91800        2.80160        2.10510
C          1.94730        2.02780        1.28150
C         -1.30320        3.48580        1.04010
C         -1.67830        4.47370        0.09190
C         -0.50290        5.22770       -0.22110
C         -0.26560        6.32180       -1.04180
C          1.00210        6.86460       -1.06760
C          2.01640        6.33700       -0.27180
C         -2.98930        4.62740       -0.33040
C         -3.94370        3.77360        0.17750
C         -3.58740        2.80420        1.10060
C         -2.28530        2.63420        1.57800
C         -2.10550        1.71940        2.69950
C         -2.81090        0.59300        2.88990
C         -2.88000       -0.13420        4.15210
C         -3.23850       -1.48710        4.31800
N         -3.45370       -2.51030        3.41340
C         -3.28980       -2.44520        1.98560
C         -4.59870       -2.11650        1.26580
C         -3.83460       -3.65270        4.09560
C         -3.83510       -3.36790        5.48120
C         -3.43750       -2.00140        5.62300
C         -3.24150       -1.23610        6.76190
C         -2.84920        0.07530        6.60000
C         -2.69210        0.60070        5.32810
C         -4.16690       -4.32110        6.43260
C         -4.50070       -5.58400        5.99490
C         -4.47900       -5.87780        4.63900
C         -4.14830       -4.94710        3.65330
C         -4.13510       -5.45370        2.27320
C         -3.49890       -6.59140        1.98850
C         -3.50930       -7.33970        0.72600
C         -2.34850       -7.74620        0.05360
N         -1.04080       -7.35390        0.23580
C         -0.62510       -6.40720        1.23740
C         -0.08010       -7.09460        2.48880
C         -0.24970       -7.99950       -0.69330
C         -1.06790       -8.84290       -1.48250
C         -2.41540       -8.65380       -1.02760
C         -3.64000       -9.12940       -1.47880
C         -4.78740       -8.67290       -0.86350
C         -4.71820       -7.80000        0.21750
C         -0.52840       -9.60510       -2.51120
C          0.82200       -9.49760       -2.77270
C          1.61470       -8.61160       -2.05230
C          1.11360       -7.84700       -1.00610
C          1.88840       -6.78830       -0.36860
C          2.39770       -5.76360       -1.08230
C          2.57950       -4.43610       -0.59670
S          2.60140       -3.18410       -1.80460
C          1.95730       -1.99110       -0.71940
C          1.85710       -2.51560        0.57190
C          2.27340       -3.88160        0.65630
C          2.34340       -4.48750        1.92880
C          1.94560       -3.81910        3.05000
C          2.04110       -4.42570        4.41410
C          1.44980       -2.48320        2.94230
O          1.04750       -1.93990        4.12640
C          0.57780       -0.61720        4.13050
C          1.43300       -1.83760        1.73490
C          1.53600       -0.75290       -1.27390
C          0.38880       -0.09960       -0.96430
C         -0.02070        1.08980       -1.62430
S          1.14720        2.12980       -2.37390
C         -0.06710        3.17670       -3.02580
C         -1.34030        2.72310       -2.68140
C         -1.31730        1.54550       -1.87510
C         -2.53610        0.93580       -1.51370
C         -3.72390        1.44640       -1.94450
C         -5.03440        0.80990       -1.60860
C         -3.73840        2.62650       -2.75350
O         -4.98760        3.04000       -3.11510
C         -5.10740        4.20870       -3.88340
C         -2.57630        3.25250       -3.11010
C          0.27350        4.35200       -3.76460
C          1.42110        4.55720       -4.43170
C          2.40360        3.50750       -4.73050
C          3.77200        3.56310       -4.44370
N          4.49880        4.48980       -3.72960
C          3.93020        5.65880       -3.11140
C          4.13250        6.91440       -3.95720
C          5.82730        4.11430       -3.72990
C          5.95320        2.89790       -4.44620
C          4.63810        2.53380       -4.88070
C          4.15870        1.43680       -5.58210
C          2.80590        1.37060       -5.84410
C          1.95680        2.38750       -5.42960
C          7.18570        2.28930       -4.63740
C          8.30630        2.90780       -4.12600
C          8.19040        4.10660       -3.43400
C          6.97000        4.73620       -3.20550
C          6.98470        5.98990       -2.44070
C          7.82520        6.98340       -2.68920
H          2.60400        4.86800        1.16350
H          0.31450        2.09070        2.66460
H          1.43150        3.45650        2.82080
H          2.61780        1.48590        1.94470
H          1.45010        1.31640        0.62830
H          2.53930        2.69080        0.65850
H         -1.06420        6.74720       -1.63100
H          1.21080        7.71980       -1.69340
H          2.98910        6.80680       -0.28080
H         -3.24690        5.41390       -1.02290
H         -4.97690        3.87190       -0.11980
H         -4.36510        2.18670        1.52400
H         -1.43250        2.05150        3.47870
H         -3.43890        0.24350        2.08460
H         -2.52780       -1.69570        1.75460
H         -2.91810       -3.41650        1.64340
H         -5.37490       -2.82270        1.55060
H         -4.95050       -1.12070        1.52640
H         -4.45410       -2.17120        0.18930
H         -3.40070       -1.66060        7.74080
H         -2.69000        0.70930        7.45940
H         -2.45450        1.64970        5.24050
H         -4.16460       -4.07070        7.48210
H         -4.77820       -6.35280        6.70030
H         -4.75140       -6.87320        4.31920
H         -4.67850       -4.92280        1.50450
H         -2.94130       -7.07100        2.78600
H         -1.49710       -5.80750        1.50750
H          0.11960       -5.73060        0.81180
H          0.22180       -6.34700        3.21620
H         -0.84120       -7.73060        2.93480
H          0.77370       -7.72440        2.24960
H         -3.68800       -9.82750       -2.30050
H         -5.75470       -9.00810       -1.20720
H         -5.62970       -7.49150        0.70950
H         -1.16000      -10.25540       -3.09690
H          1.26810      -10.08320       -3.56270
H          2.66040       -8.50860       -2.30350
H          1.87050       -6.74060        0.70510
H          2.43990       -5.85990       -2.16050
H          2.77070       -5.47300        2.02670
H          2.44280       -5.43460        4.36600
H          1.05930       -4.44660        4.88600
H          2.68550       -3.81660        5.04640
H         -0.26650       -0.48740        3.44670
H          1.37330        0.08800        3.86610
H          0.24170       -0.42290        5.14800
H          1.12870       -0.80870        1.64700
H          2.12500       -0.37760       -2.10290
H         -0.30380       -0.53110       -0.25350
H         -2.52100        0.04250       -0.90690
H         -5.66480        1.51360       -1.06820
H         -5.56260        0.53790       -2.52130
H         -4.88860       -0.07920       -1.00220
H         -4.69010        5.07670       -3.36220
H         -6.17590        4.35850       -4.03230
H         -4.61850        4.10360       -4.85780
H         -2.57290        4.13530       -3.72810
H         -0.46440        5.14340       -3.73510
H          1.59210        5.52210       -4.89220
H          4.37380        5.79600       -2.12500
H          2.86300        5.47060       -2.96640
H          3.65400        7.76480       -3.47860
H          5.19270        7.12850       -4.07150
H          3.70020        6.77880       -4.94600
H          4.83080        0.65800       -5.90820
H          2.39730        0.52990       -6.38480
H          0.90380        2.32410       -5.66540
H          7.25630        1.35960       -5.18100
H          9.28210        2.46520       -4.25950
H          9.08040        4.56750       -3.03110
H          6.29910        6.07040       -1.60800
H          8.51910        6.94330       -3.51270
H          7.84220        7.87900       -2.09130
