250

C          5.23320       -5.09870        6.76400
S          3.60200       -5.28360        6.30240
C          3.27350       -3.58540        6.48450
C          4.42700       -2.91300        6.90140
C          5.54730       -3.79060        7.06040
C          6.78920       -3.26310        7.48990
C          6.91600       -1.93680        7.76620
C          8.20670       -1.34160        8.23160
C          5.78490       -1.06650        7.61510
O          6.03970        0.23490        7.93000
C          4.98350        1.16200        7.85970
C          4.57370       -1.54100        7.18770
C          2.00070       -3.03300        6.21900
C          0.88340       -3.73050        5.90600
C         -0.35890       -3.12420        5.57770
C         -1.51700       -3.74750        5.19820
C         -2.55500       -2.86130        4.81850
C         -3.82420       -3.17290        4.29540
C         -4.24990       -4.55440        4.04360
C         -3.44490       -5.44410        3.33400
C         -3.88480       -6.72130        3.05910
C         -5.13230       -7.16570        3.49000
S         -5.59180       -8.83320        3.11200
C         -7.32700       -8.66860        2.54910
C         -7.45260       -7.72490        1.37020
C         -5.91270       -6.27720        4.22290
F         -7.11330       -6.65540        4.71300
C         -5.49720       -4.98730        4.48180
C         -4.63600       -2.10460        3.94120
C         -4.24510       -0.75690        4.11800
C         -2.98070       -0.43930        4.64400
C         -2.55440        0.96560        4.67890
C         -1.40750        1.37570        4.00690
C         -1.08100        2.71390        3.89600
C         -1.88480        3.69170        4.46940
S         -1.64170        5.43220        4.33320
C         -0.01600        5.61420        3.53730
C          1.12760        5.30710        4.48410
C         -3.00600        3.26120        5.18110
C         -3.35210        1.93420        5.28630
F         -3.80040        4.18520        5.76750
C         -2.16010       -1.50460        4.96320
S         -0.52360       -1.37470        5.54460
C         -5.14360        0.14060        3.49950
C         -6.16400       -0.46860        2.82610
S         -6.13280       -2.20780        3.03480
C         -6.90570        0.21970        1.81210
C         -6.97590        1.57880        1.69670
C         -7.13830        2.02670        0.36390
C         -6.91440        3.33150       -0.10680
C         -6.59740        4.45960        0.78180
C         -5.57850        4.37300        1.72850
C         -5.26280        5.44420        2.54050
C         -5.95540        6.64500        2.43240
S         -5.64040        8.07460        3.41720
C         -4.93460        7.39310        4.95620
C         -5.94280        6.55980        5.72020
C         -6.94010        6.73410        1.44840
F         -7.60490        7.89640        1.28650
C         -7.26530        5.67240        0.63310
C         -6.78580        3.46990       -1.47760
C         -6.92820        2.39580       -2.38760
C         -7.27030        1.10960       -1.92370
C         -7.40020        0.01680       -2.89310
C         -8.14940        0.21150       -4.05360
C         -8.22760       -0.76230       -5.02790
C         -7.54740       -1.96790       -4.88700
S         -7.54680       -3.25830       -6.08690
C         -7.75970       -2.35510       -7.66220
C         -6.62150       -1.39080       -7.93230
C         -6.83240       -2.16530       -3.70580
C         -6.74800       -1.20260       -2.72440
F         -6.17370       -3.32560       -3.52080
C         -7.30580        0.94850       -0.54490
S         -7.31480       -0.58090        0.30490
C         -6.33450        2.69240       -3.64420
C         -5.70340        3.90250       -3.67620
S         -6.05160        4.86140       -2.24040
C         -4.50730        4.18180       -4.40800
C         -3.46560        4.88750       -3.87800
C         -2.20040        4.47470       -4.35770
C         -0.96660        4.75010       -3.74900
C         -0.89350        5.59530       -2.54560
C         -0.10350        6.73810       -2.48800
C         -0.09960        7.52650       -1.35470
C         -0.85310        7.18770       -0.23410
S         -0.80470        8.27000        1.16580
C         -2.55860        8.34890        1.69150
C         -3.47020        8.79160        0.56650
C         -1.57610        5.99960       -0.27950
F         -2.25480        5.55780        0.80250
C         -1.62010        5.22340       -1.41820
C          0.11800        4.01960       -4.19700
C          0.02590        3.08620       -5.25800
C         -1.20170        2.84830       -5.91030
C         -1.26050        1.84320       -6.97820
C         -0.30470        1.85250       -7.99280
C         -0.28230        0.88110       -8.97400
C         -1.22520       -0.14170       -8.98310
S         -1.30910       -1.44100      -10.16040
C          0.17100       -1.17330      -11.20580
C          0.17500       -2.20390      -12.31870
C         -2.19040       -0.12680       -7.97350
C         -2.21940        0.83140       -6.98660
F         -3.12720       -1.09790       -7.95400
C         -2.30450        3.51140       -5.39390
S         -3.98580        3.15720       -5.73640
C          1.18370        2.27440       -5.33310
C          2.10360        2.53230       -4.35710
S          1.65280        3.90770       -3.37020
C          3.15170        1.63490       -3.98490
C          3.60260        0.58470       -4.72920
C          4.33820       -0.36980       -3.98510
C          4.76720       -1.63970       -4.41330
C          4.40180       -2.12630       -5.75010
C          5.32830       -2.70240       -6.61490
C          4.94310       -3.13670       -7.86790
C          3.62960       -3.00250       -8.30680
S          3.20880       -3.53960       -9.94330
C          1.71860       -4.56510       -9.64180
C          1.99350       -5.69020       -8.66530
C          2.71660       -2.41370       -7.43850
F          1.43670       -2.20980       -7.82150
C          3.07940       -2.00460       -6.17360
C          5.43700       -2.41690       -3.48160
C          5.61690       -2.00480       -2.13740
C          5.10920       -0.77460       -1.68890
C          5.10490       -0.45420       -0.25530
C          5.59350        0.75170        0.23880
C          5.57870        1.00830        1.59650
C          5.07650        0.07390        2.49110
S          5.09360        0.38270        4.24450
C          6.89340        0.21090        4.52890
C          7.36490       -1.20620        4.27120
C          4.56250       -1.11400        1.98760
C          4.57480       -1.38560        0.63500
F          4.05780       -2.04060        2.82400
C          4.51070        0.03590       -2.63840
S          3.72910        1.56500       -2.32950
C          6.28200       -2.98350       -1.36240
C          6.55380       -4.13800       -2.03910
S          6.04720       -4.03430       -3.72240
C          7.15340       -5.32040       -1.52480
S          8.00530       -6.40620       -2.56740
C          8.45190       -7.45180       -1.26330
C          7.93310       -6.98070       -0.05520
C          7.18020       -5.77460       -0.20240
C          6.52890       -5.23650        0.92950
C          6.66370       -5.81080        2.15770
C          5.98150       -5.26150        3.36800
C          7.47000       -6.98520        2.30670
O          7.54420       -7.45390        3.58260
C          8.27880       -8.62670        3.82680
C          8.07380       -7.56410        1.22380
C          9.24790       -8.61930       -1.48280
C          9.70110       -9.02710       -2.66900
H          5.87820       -5.95410        6.79610
H          7.63090       -3.93080        7.60110
H          8.06810       -0.86130        9.19880
H          8.54190       -0.57430        7.53520
H          8.97520       -2.10500        8.31790
H          5.40860        2.11610        8.16800
H          4.16910        0.89110        8.53880
H          4.59350        1.24910        6.84060
H          3.72800       -0.88690        7.06080
H          1.93760       -1.95310        6.26380
H          0.91270       -4.81170        5.86500
H         -1.61840       -4.81780        5.18510
H         -2.48620       -5.11660        2.96210
H         -3.26790       -7.40200        2.49320
H         -7.94250       -8.35610        3.38980
H         -7.59750       -9.68700        2.27020
H         -8.48170       -7.71580        1.01670
H         -6.80610       -8.04250        0.55480
H         -7.17810       -6.70990        1.65250
H         -6.14370       -4.33770        5.05130
H         -0.77780        0.64090        3.52950
H         -0.20260        2.98590        3.33430
H          0.00540        6.66010        3.22980
H         -0.00250        4.99240        2.64310
H          1.08280        4.28040        4.84250
H          1.09040        5.97180        5.34430
H          2.07620        5.45470        3.97150
H         -4.23590        1.65970        5.84100
H         -4.97010        1.19970        3.45650
H         -6.83520        2.24570        2.52650
H         -4.99610        3.46700        1.80620
H         -4.46080        5.34460        3.25380
H         -4.03260        6.83170        4.72080
H         -4.65370        8.28260        5.51960
H         -5.48940        6.19360        6.63790
H         -6.25810        5.70150        5.13100
H         -6.81980        7.15360        5.96800
H         -8.04700        5.79120       -0.10090
H         -8.68710        1.13840       -4.18730
H         -8.82470       -0.57940       -5.90700
H         -8.73080       -1.86070       -7.65720
H         -7.78010       -3.15180       -8.40560
H         -5.66800       -1.91270       -7.92660
H         -6.75600       -0.92640       -8.90710
H         -6.58690       -0.60650       -7.17870
H         -6.13900       -1.40190       -1.85790
H         -6.22470        1.96400       -4.42830
H         -3.59070        5.58580       -3.07060
H          0.48470        7.02470       -3.34620
H          0.48700        8.43130       -1.32070
H         -2.84850        7.38220        2.09670
H         -2.54580        9.08180        2.49760
H         -4.47240        8.95230        0.95690
H         -3.11430        9.72160        0.12780
H         -3.52370        8.03530       -0.21520
H         -2.20360        4.31520       -1.40750
H          0.42990        2.64380       -8.02060
H          0.48220        0.92430       -9.73210
H          0.11850       -0.16570      -11.61780
H          1.05090       -1.27870      -10.57170
H          0.15310       -3.20970      -11.90730
H         -0.69380       -2.07600      -12.96020
H          1.07580       -2.09320      -12.91810
H         -2.96960        0.76060       -6.21590
H          1.27060        1.44600       -6.01160
H          3.40100        0.48800       -5.77970
H          6.35750       -2.80260       -6.30690
H          5.66280       -3.58500       -8.53480
H          0.90710       -3.92370       -9.30380
H          1.47880       -4.95580      -10.63060
H          2.24380       -5.29900       -7.68050
H          2.82060       -6.30590       -9.01280
H          1.10730       -6.31460       -8.57140
H          2.32120       -1.59640       -5.52320
H          5.99780        1.48420       -0.44270
H          5.96170        1.94330        1.97660
H          7.03300        0.49090        5.57140
H          7.40400        0.93160        3.88960
H          7.25170       -1.46600        3.21950
H          6.78880       -1.91020        4.86780
H          8.41550       -1.30200        4.53780
H          4.15650       -2.31460        0.27880
H          6.59660       -2.80680       -0.35150
H          5.88840       -4.37720        0.81980
H          5.34640       -6.02460        3.81470
H          5.37340       -4.39640        3.11980
H          6.71910       -4.97540        4.11670
H          8.19620       -8.81020        4.89700
H          9.33400       -8.50350        3.56160
H          7.86480       -9.48090        3.28120
H          8.65430       -8.46650        1.32110
H          9.48010       -9.19320       -0.59560
H          9.48630       -8.47920       -3.57150
H         10.29550       -9.91710       -2.77010
