81

C          4.79730        2.16730        5.26280
S          6.34690        2.52860        5.95600
C          5.64050        3.52050        7.18400
C          4.29370        3.56160        7.05560
C          3.80290        2.78370        5.95090
C          2.36870        2.89700        5.91110
C          1.95170        3.70200        6.93280
C          3.13780        4.17990        7.72160
O          3.09350        4.91140        8.68180
C          0.65120        4.11160        7.31720
S          0.47010        5.20460        8.68990
C         -1.24850        5.21360        8.53170
C         -1.66390        4.43400        7.50430
C         -0.58890        3.79780        6.79910
C         -1.13810        3.00060        5.74990
C         -2.50700        3.10670        5.76710
C         -2.92580        4.02200        6.87780
O         -4.06780        4.31500        7.14980
C         -3.48840        2.51210        4.94810
S         -5.19050        2.85940        5.26070
C         -5.69620        1.84730        3.95510
C         -4.64310        1.28040        3.31880
C         -3.37590        1.65040        3.87160
C         -2.36250        1.00300        3.12030
C         -2.91910        0.22520        2.12440
C         -4.41780        0.37190        2.18370
O         -5.25240       -0.10570        1.45130
C         -2.15830       -0.50800        1.18160
S         -0.46590       -0.11000        1.04120
C         -0.20420       -1.21810       -0.26860
C         -1.37100       -1.95800       -0.50860
C         -2.48000       -1.54670        0.29020
C         -3.70190       -2.23320        0.14720
C         -3.82780       -3.27190       -0.73170
C         -5.11890       -4.00280       -0.90230
C         -2.70050       -3.69960       -1.49700
O         -2.93280       -4.75440       -2.31660
C         -1.88910       -5.21410       -3.13930
C         -1.49190       -3.06080       -1.37340
C          1.08500       -1.29880       -0.84910
C          1.42220       -1.57510       -2.13930
C          0.61080       -1.58520       -3.29870
S         -1.02610       -0.91510       -3.37880
C         -1.13380       -1.18180       -5.08350
C         -0.00630       -1.75050       -5.56850
C          0.99640       -1.97360       -4.56840
C          2.14200       -2.55070       -5.19230
C          1.90680       -2.69540       -6.53660
C          0.53200       -2.20740       -6.86080
O          0.01720       -2.20710       -7.95610
C          2.73890       -3.19720       -7.56810
S          2.11350       -3.24240       -9.21780
C          3.59340       -3.89890       -9.82050
C          4.50390       -4.07400       -8.83300
C          4.02770       -3.67790       -7.54550
C          5.08730       -3.91070       -6.59200
C          6.16210       -4.41820       -7.22800
C          5.89330       -4.56590       -8.68090
O          6.64190       -4.98910       -9.53140
H          4.74250        1.52970        4.40340
H          6.26930        3.99850        7.90880
H          1.74670        2.41580        5.17980
H         -1.84290        5.79340        9.21070
H         -0.56760        2.40980        5.05880
H         -6.74160        1.73680        3.74170
H         -1.30500        1.08700        3.29760
H         -4.55290       -1.92730        0.73100
H         -4.99410       -5.05190       -0.63740
H         -5.89390       -3.56350       -0.28140
H         -5.42980       -3.96870       -1.94510
H         -2.31410       -6.02260       -3.73160
H         -1.52810       -4.42660       -3.80910
H         -1.05130       -5.60000       -2.54970
H         -0.61790       -3.39720       -1.90580
H          1.90290       -1.08510       -0.17110
H          2.47390       -1.73010       -2.34840
H         -2.02920       -0.90130       -5.60290
H          3.04540       -2.82200       -4.67790
H          3.69230       -4.11170      -10.86690
H          5.01900       -3.70620       -5.53790
H          7.10280       -4.69280       -6.78640
