
  xtb     03042202033D
 energy: -426.596681328029 gnorm: 0.000547344536 xtb: 6.4.1 (unknown)
250273  0     0  0            999 V2000
    5.1480    1.0672    3.4040 C   0  0  0  0  0  0  0  0  0  0  0  0
    5.3316    1.5742    2.1685 C   0  0  0  0  0  0  0  0  0  0  0  0
    4.7455    2.8643    2.0043 C   0  0  0  0  0  0  0  0  0  0  0  0
    4.7377    3.6789    0.8618 C   0  0  0  0  0  0  0  0  0  0  0  0
    5.3619    3.2612   -0.4011 C   0  0  0  0  0  0  0  0  0  0  0  0
    4.6226    3.3042   -1.5810 C   0  0  0  0  0  0  0  0  0  0  0  0
    5.1771    2.9003   -2.7761 C   0  0  0  0  0  0  0  0  0  0  0  0
    6.4855    2.4381   -2.8359 C   0  0  0  0  0  0  0  0  0  0  0  0
    7.1299    1.8936   -4.4007 S   0  0  0  0  0  0  0  0  0  0  0  0
    8.6256    2.9313   -4.5550 C   0  0  0  0  0  0  0  0  0  0  0  0
    8.2866    4.4071   -4.5235 C   0  0  0  0  0  0  0  0  0  0  0  0
    7.2108    2.3876   -1.6516 C   0  0  0  0  0  0  0  0  0  0  0  0
    8.4804    1.9196   -1.6479 F   0  0  0  0  0  0  0  0  0  0  0  0
    6.6740    2.8025   -0.4493 C   0  0  0  0  0  0  0  0  0  0  0  0
    4.0387    4.8718    0.9568 C   0  0  0  0  0  0  0  0  0  0  0  0
    3.3430    5.2866    2.1190 C   0  0  0  0  0  0  0  0  0  0  0  0
    3.3748    4.4824    3.2706 C   0  0  0  0  0  0  0  0  0  0  0  0
    2.6929    4.8926    4.5034 C   0  0  0  0  0  0  0  0  0  0  0  0
    2.9040    6.1587    5.0427 C   0  0  0  0  0  0  0  0  0  0  0  0
    2.2795    6.5526    6.2100 C   0  0  0  0  0  0  0  0  0  0  0  0
    1.4188    5.6918    6.8816 C   0  0  0  0  0  0  0  0  0  0  0  0
    0.5467    6.0830    8.3637 S   0  0  0  0  0  0  0  0  0  0  0  0
    1.5210    7.4443    9.0949 C   0  0  0  0  0  0  0  0  0  0  0  0
    2.8998    6.9910    9.5346 C   0  0  0  0  0  0  0  0  0  0  0  0
    1.2030    4.4323    6.3211 C   0  0  0  0  0  0  0  0  0  0  0  0
    1.8234    4.0254    5.1614 C   0  0  0  0  0  0  0  0  0  0  0  0
    0.3550    3.5808    6.9310 F   0  0  0  0  0  0  0  0  0  0  0  0
    4.0737    3.2856    3.1777 C   0  0  0  0  0  0  0  0  0  0  0  0
    4.2434    2.1054    4.4539 S   0  0  0  0  0  0  0  0  0  0  0  0
    2.5914    6.4711    1.9003 C   0  0  0  0  0  0  0  0  0  0  0  0
    2.7158    6.9784    0.6350 C   0  0  0  0  0  0  0  0  0  0  0  0
    3.8525    6.0346   -0.3260 S   0  0  0  0  0  0  0  0  0  0  0  0
    1.9482    7.9538   -0.0583 C   0  0  0  0  0  0  0  0  0  0  0  0
    2.0615    7.9325   -1.7868 S   0  0  0  0  0  0  0  0  0  0  0  0
    0.6329    8.9010   -1.9986 C   0  0  0  0  0  0  0  0  0  0  0  0
    0.1619    9.3284   -0.7492 C   0  0  0  0  0  0  0  0  0  0  0  0
    0.9170    8.8094    0.3503 C   0  0  0  0  0  0  0  0  0  0  0  0
    0.5519    9.1857    1.6591 C   0  0  0  0  0  0  0  0  0  0  0  0
   -0.5146   10.0073    1.8811 C   0  0  0  0  0  0  0  0  0  0  0  0
   -0.9153   10.4282    3.2583 C   0  0  0  0  0  0  0  0  0  0  0  0
   -1.2808   10.4960    0.7762 C   0  0  0  0  0  0  0  0  0  0  0  0
   -2.3203   11.2998    1.1257 O   0  0  0  0  0  0  0  0  0  0  0  0
   -3.1296   11.8339    0.1074 C   0  0  0  0  0  0  0  0  0  0  0  0
   -0.9440   10.1659   -0.5113 C   0  0  0  0  0  0  0  0  0  0  0  0
   -0.0012    8.8641   -3.2645 C   0  0  0  0  0  0  0  0  0  0  0  0
    0.6595    8.3864   -4.3542 C   0  0  0  0  0  0  0  0  0  0  0  0
    0.1300    7.5926   -5.4001 C   0  0  0  0  0  0  0  0  0  0  0  0
    0.9155    6.7092   -6.0987 C   0  0  0  0  0  0  0  0  0  0  0  0
    0.2131    5.5855   -6.5862 C   0  0  0  0  0  0  0  0  0  0  0  0
    0.7878    4.3570   -6.9590 C   0  0  0  0  0  0  0  0  0  0  0  0
    2.2353    4.2542   -7.1901 C   0  0  0  0  0  0  0  0  0  0  0  0
    3.0339    3.3529   -6.4888 C   0  0  0  0  0  0  0  0  0  0  0  0
    4.3892    3.2744   -6.7357 C   0  0  0  0  0  0  0  0  0  0  0  0
    4.9965    4.0930   -7.6834 C   0  0  0  0  0  0  0  0  0  0  0  0
    6.7463    3.9408   -7.9210 S   0  0  0  0  0  0  0  0  0  0  0  0
    6.9063    3.8855   -9.7427 C   0  0  0  0  0  0  0  0  0  0  0  0
    6.1252    2.7323  -10.3398 C   0  0  0  0  0  0  0  0  0  0  0  0
    4.1955    5.0146   -8.3501 C   0  0  0  0  0  0  0  0  0  0  0  0
    4.7296    5.8690   -9.2512 F   0  0  0  0  0  0  0  0  0  0  0  0
    2.8373    5.0955   -8.1211 C   0  0  0  0  0  0  0  0  0  0  0  0
   -0.0594    3.2622   -6.9605 C   0  0  0  0  0  0  0  0  0  0  0  0
   -1.4598    3.3640   -6.7630 C   0  0  0  0  0  0  0  0  0  0  0  0
   -2.0452    4.6127   -6.4826 C   0  0  0  0  0  0  0  0  0  0  0  0
   -3.4818    4.7278   -6.1943 C   0  0  0  0  0  0  0  0  0  0  0  0
   -4.0758    3.9467   -5.2068 C   0  0  0  0  0  0  0  0  0  0  0  0
   -5.4345    4.0066   -4.9714 C   0  0  0  0  0  0  0  0  0  0  0  0
   -6.2506    4.8450   -5.7225 C   0  0  0  0  0  0  0  0  0  0  0  0
   -8.0008    4.9574   -5.5417 S   0  0  0  0  0  0  0  0  0  0  0  0
   -8.4529    3.3471   -4.8015 C   0  0  0  0  0  0  0  0  0  0  0  0
   -8.1538    2.1812   -5.7237 C   0  0  0  0  0  0  0  0  0  0  0  0
   -5.6329    5.6662   -6.6666 C   0  0  0  0  0  0  0  0  0  0  0  0
   -4.2764    5.6218   -6.9057 C   0  0  0  0  0  0  0  0  0  0  0  0
   -6.3857    6.5223   -7.3848 F   0  0  0  0  0  0  0  0  0  0  0  0
   -1.1805    5.6843   -6.3443 C   0  0  0  0  0  0  0  0  0  0  0  0
   -1.5792    7.2015   -5.5646 S   0  0  0  0  0  0  0  0  0  0  0  0
   -2.0734    2.0879   -6.6633 C   0  0  0  0  0  0  0  0  0  0  0  0
   -1.1801    1.0582   -6.6552 C   0  0  0  0  0  0  0  0  0  0  0  0
    0.4518    1.5939   -7.0133 S   0  0  0  0  0  0  0  0  0  0  0  0
   -1.3721   -0.2120   -6.0217 C   0  0  0  0  0  0  0  0  0  0  0  0
   -0.4630   -0.7581   -5.1660 C   0  0  0  0  0  0  0  0  0  0  0  0
   -1.0149   -1.7281   -4.2957 C   0  0  0  0  0  0  0  0  0  0  0  0
   -0.4066   -2.2868   -3.1633 C   0  0  0  0  0  0  0  0  0  0  0  0
    0.9141   -1.8428   -2.7013 C   0  0  0  0  0  0  0  0  0  0  0  0
    1.9266   -2.7348   -2.3659 C   0  0  0  0  0  0  0  0  0  0  0  0
    3.1418   -2.2835   -1.8874 C   0  0  0  0  0  0  0  0  0  0  0  0
    3.3844   -0.9249   -1.7244 C   0  0  0  0  0  0  0  0  0  0  0  0
    4.8719   -0.2388   -1.0708 S   0  0  0  0  0  0  0  0  0  0  0  0
    6.1469   -1.4644   -1.5232 C   0  0  0  0  0  0  0  0  0  0  0  0
    6.2880   -1.6180   -3.0240 C   0  0  0  0  0  0  0  0  0  0  0  0
    2.3539   -0.0449   -2.0493 C   0  0  0  0  0  0  0  0  0  0  0  0
    2.5291    1.2830   -1.8849 F   0  0  0  0  0  0  0  0  0  0  0  0
    1.1414   -0.4796   -2.5303 C   0  0  0  0  0  0  0  0  0  0  0  0
   -1.1809   -3.1516   -2.4104 C   0  0  0  0  0  0  0  0  0  0  0  0
   -2.5091   -3.5084   -2.7504 C   0  0  0  0  0  0  0  0  0  0  0  0
   -3.1276   -2.9172   -3.8677 C   0  0  0  0  0  0  0  0  0  0  0  0
   -4.5234   -3.2171   -4.2105 C   0  0  0  0  0  0  0  0  0  0  0  0
   -4.9549   -4.5342   -4.3608 C   0  0  0  0  0  0  0  0  0  0  0  0
   -6.2641   -4.8099   -4.6896 C   0  0  0  0  0  0  0  0  0  0  0  0
   -7.1974   -3.7918   -4.8862 C   0  0  0  0  0  0  0  0  0  0  0  0
   -8.8247   -4.2908   -5.3632 S   0  0  0  0  0  0  0  0  0  0  0  0
   -9.9438   -3.0766   -4.5725 C   0  0  0  0  0  0  0  0  0  0  0  0
   -9.7746   -3.0395   -3.0671 C   0  0  0  0  0  0  0  0  0  0  0  0
   -6.7471   -2.4829   -4.7499 C   0  0  0  0  0  0  0  0  0  0  0  0
   -5.4422   -2.1925   -4.4076 C   0  0  0  0  0  0  0  0  0  0  0  0
   -7.5794   -1.4320   -4.9424 F   0  0  0  0  0  0  0  0  0  0  0  0
   -2.3726   -2.0030   -4.5895 C   0  0  0  0  0  0  0  0  0  0  0  0
   -2.9400   -0.9860   -5.8981 S   0  0  0  0  0  0  0  0  0  0  0  0
   -3.0969   -4.3326   -1.7526 C   0  0  0  0  0  0  0  0  0  0  0  0
   -2.2912   -4.5428   -0.6752 C   0  0  0  0  0  0  0  0  0  0  0  0
   -0.7104   -3.8012   -0.8676 S   0  0  0  0  0  0  0  0  0  0  0  0
   -2.5565   -5.2681    0.5282 C   0  0  0  0  0  0  0  0  0  0  0  0
   -3.2656   -6.8436    0.4897 S   0  0  0  0  0  0  0  0  0  0  0  0
   -3.0410   -7.0768    2.2000 C   0  0  0  0  0  0  0  0  0  0  0  0
   -2.5531   -5.9096    2.7862 C   0  0  0  0  0  0  0  0  0  0  0  0
   -2.2416   -4.8943    1.8318 C   0  0  0  0  0  0  0  0  0  0  0  0
   -1.7513   -3.6482    2.2840 C   0  0  0  0  0  0  0  0  0  0  0  0
   -1.5692   -3.4165    3.6134 C   0  0  0  0  0  0  0  0  0  0  0  0
   -1.1270   -2.0873    4.1313 C   0  0  0  0  0  0  0  0  0  0  0  0
   -1.8636   -4.4482    4.5642 C   0  0  0  0  0  0  0  0  0  0  0  0
   -1.6078   -4.1125    5.8546 O   0  0  0  0  0  0  0  0  0  0  0  0
   -1.7791   -5.0927    6.8477 C   0  0  0  0  0  0  0  0  0  0  0  0
   -2.3760   -5.6523    4.1631 C   0  0  0  0  0  0  0  0  0  0  0  0
   -3.3288   -8.3616    2.7518 C   0  0  0  0  0  0  0  0  0  0  0  0
   -2.6665   -9.0337    3.7221 C   0  0  0  0  0  0  0  0  0  0  0  0
   -1.4387   -8.6990    4.3738 C   0  0  0  0  0  0  0  0  0  0  0  0
   -0.4860   -7.7678    4.0748 C   0  0  0  0  0  0  0  0  0  0  0  0
    0.6079   -7.7398    4.9763 C   0  0  0  0  0  0  0  0  0  0  0  0
    1.6705   -6.8205    5.0209 C   0  0  0  0  0  0  0  0  0  0  0  0
    1.7466   -5.6614    4.1228 C   0  0  0  0  0  0  0  0  0  0  0  0
    1.5868   -5.7492    2.7397 C   0  0  0  0  0  0  0  0  0  0  0  0
    1.6445   -4.6213    1.9517 C   0  0  0  0  0  0  0  0  0  0  0  0
    1.8842   -3.3530    2.4888 C   0  0  0  0  0  0  0  0  0  0  0  0
    1.9404   -2.0301    1.3243 S   0  0  0  0  0  0  0  0  0  0  0  0
    2.0752   -0.4803    2.3014 C   0  0  0  0  0  0  0  0  0  0  0  0
    1.9692    0.7021    1.3596 C   0  0  0  0  0  0  0  0  0  0  0  0
    2.0706   -3.2863    3.8655 C   0  0  0  0  0  0  0  0  0  0  0  0
    2.3424   -2.1164    4.4922 F   0  0  0  0  0  0  0  0  0  0  0  0
    1.9862   -4.4046    4.6686 C   0  0  0  0  0  0  0  0  0  0  0  0
    2.6132   -7.0171    6.0246 C   0  0  0  0  0  0  0  0  0  0  0  0
    2.5217   -8.0476    6.9892 C   0  0  0  0  0  0  0  0  0  0  0  0
    1.4168   -8.9113    6.9936 C   0  0  0  0  0  0  0  0  0  0  0  0
    1.2354   -9.9269    8.0375 C   0  0  0  0  0  0  0  0  0  0  0  0
    1.3056   -9.5837    9.3868 C   0  0  0  0  0  0  0  0  0  0  0  0
    1.0928  -10.5324   10.3636 C   0  0  0  0  0  0  0  0  0  0  0  0
    0.8203  -11.8596   10.0380 C   0  0  0  0  0  0  0  0  0  0  0  0
    0.6045  -12.9964   11.3764 S   0  0  0  0  0  0  0  0  0  0  0  0
   -0.7746  -14.0678   10.8255 C   0  0  0  0  0  0  0  0  0  0  0  0
   -2.0211  -13.2691   10.5020 C   0  0  0  0  0  0  0  0  0  0  0  0
    0.7876  -12.1941    8.6878 C   0  0  0  0  0  0  0  0  0  0  0  0
    0.9704  -11.2491    7.6989 C   0  0  0  0  0  0  0  0  0  0  0  0
    0.5783  -13.4701    8.2956 F   0  0  0  0  0  0  0  0  0  0  0  0
    0.4928   -8.7410    5.9744 C   0  0  0  0  0  0  0  0  0  0  0  0
   -0.9854   -9.6458    5.7888 S   0  0  0  0  0  0  0  0  0  0  0  0
    3.6556   -8.0661    7.8553 C   0  0  0  0  0  0  0  0  0  0  0  0
    4.5503   -7.1001    7.5673 C   0  0  0  0  0  0  0  0  0  0  0  0
    4.0819   -6.0956    6.2385 S   0  0  0  0  0  0  0  0  0  0  0  0
    5.4879    0.1260    3.7909 H   0  0  0  0  0  0  0  0  0  0  0  0
    5.8400    1.0543    1.3778 H   0  0  0  0  0  0  0  0  0  0  0  0
    3.5952    3.6277   -1.5591 H   0  0  0  0  0  0  0  0  0  0  0  0
    4.5958    2.9328   -3.6836 H   0  0  0  0  0  0  0  0  0  0  0  0
    9.0418    2.6445   -5.5199 H   0  0  0  0  0  0  0  0  0  0  0  0
    9.3200    2.6518   -3.7645 H   0  0  0  0  0  0  0  0  0  0  0  0
    9.1927    4.9931   -4.6631 H   0  0  0  0  0  0  0  0  0  0  0  0
    7.8376    4.6837   -3.5704 H   0  0  0  0  0  0  0  0  0  0  0  0
    7.5883    4.6498   -5.3216 H   0  0  0  0  0  0  0  0  0  0  0  0
    7.2876    2.7675    0.4378 H   0  0  0  0  0  0  0  0  0  0  0  0
    3.5840    6.8381    4.5507 H   0  0  0  0  0  0  0  0  0  0  0  0
    2.4670    7.5427    6.5935 H   0  0  0  0  0  0  0  0  0  0  0  0
    1.5607    8.2711    8.3868 H   0  0  0  0  0  0  0  0  0  0  0  0
    0.9210    7.7515    9.9514 H   0  0  0  0  0  0  0  0  0  0  0  0
    3.4841    6.6398    8.6865 H   0  0  0  0  0  0  0  0  0  0  0  0
    3.4296    7.8177   10.0040 H   0  0  0  0  0  0  0  0  0  0  0  0
    2.8158    6.1785   10.2524 H   0  0  0  0  0  0  0  0  0  0  0  0
    1.6136    3.0414    4.7734 H   0  0  0  0  0  0  0  0  0  0  0  0
    1.9186    6.8671    2.6374 H   0  0  0  0  0  0  0  0  0  0  0  0
    1.1401    8.8400    2.4942 H   0  0  0  0  0  0  0  0  0  0  0  0
   -1.9406   10.1213    3.4581 H   0  0  0  0  0  0  0  0  0  0  0  0
   -0.2585    9.9890    4.0043 H   0  0  0  0  0  0  0  0  0  0  0  0
   -0.8810   11.5133    3.3425 H   0  0  0  0  0  0  0  0  0  0  0  0
   -3.8871   12.4294    0.6145 H   0  0  0  0  0  0  0  0  0  0  0  0
   -3.6179   11.0447   -0.4731 H   0  0  0  0  0  0  0  0  0  0  0  0
   -2.5546   12.4772   -0.5665 H   0  0  0  0  0  0  0  0  0  0  0  0
   -1.4943   10.5430   -1.3578 H   0  0  0  0  0  0  0  0  0  0  0  0
   -1.0664    9.0488   -3.2994 H   0  0  0  0  0  0  0  0  0  0  0  0
    1.7421    8.3414   -4.2944 H   0  0  0  0  0  0  0  0  0  0  0  0
    1.9886    6.7784   -6.1129 H   0  0  0  0  0  0  0  0  0  0  0  0
    2.5920    2.7184   -5.7365 H   0  0  0  0  0  0  0  0  0  0  0  0
    5.0075    2.5724   -6.1971 H   0  0  0  0  0  0  0  0  0  0  0  0
    6.5979    4.8444  -10.1536 H   0  0  0  0  0  0  0  0  0  0  0  0
    7.9776    3.7602   -9.9000 H   0  0  0  0  0  0  0  0  0  0  0  0
    5.0568    2.8595  -10.1724 H   0  0  0  0  0  0  0  0  0  0  0  0
    6.4338    1.7899   -9.8917 H   0  0  0  0  0  0  0  0  0  0  0  0
    6.3024    2.6852  -11.4125 H   0  0  0  0  0  0  0  0  0  0  0  0
    2.2554    5.8167   -8.6745 H   0  0  0  0  0  0  0  0  0  0  0  0
   -3.4622    3.2985   -4.5994 H   0  0  0  0  0  0  0  0  0  0  0  0
   -5.8573    3.3933   -4.1921 H   0  0  0  0  0  0  0  0  0  0  0  0
   -9.5248    3.4431   -4.6294 H   0  0  0  0  0  0  0  0  0  0  0  0
   -7.9560    3.2522   -3.8367 H   0  0  0  0  0  0  0  0  0  0  0  0
   -8.4491    1.2467   -5.2511 H   0  0  0  0  0  0  0  0  0  0  0  0
   -7.0919    2.1272   -5.9543 H   0  0  0  0  0  0  0  0  0  0  0  0
   -8.7015    2.2892   -6.6567 H   0  0  0  0  0  0  0  0  0  0  0  0
   -3.8520    6.2636   -7.6618 H   0  0  0  0  0  0  0  0  0  0  0  0
   -3.1249    1.9407   -6.4961 H   0  0  0  0  0  0  0  0  0  0  0  0
    0.5561   -0.4215   -5.1085 H   0  0  0  0  0  0  0  0  0  0  0  0
    1.7653   -3.7950   -2.4869 H   0  0  0  0  0  0  0  0  0  0  0  0
    3.9001   -3.0023   -1.6225 H   0  0  0  0  0  0  0  0  0  0  0  0
    7.0575   -1.0526   -1.0877 H   0  0  0  0  0  0  0  0  0  0  0  0
    5.9172   -2.4062   -1.0254 H   0  0  0  0  0  0  0  0  0  0  0  0
    7.0949   -2.3133   -3.2465 H   0  0  0  0  0  0  0  0  0  0  0  0
    5.3691   -1.9988   -3.4655 H   0  0  0  0  0  0  0  0  0  0  0  0
    6.5190   -0.6595   -3.4835 H   0  0  0  0  0  0  0  0  0  0  0  0
    0.3712    0.2450   -2.7448 H   0  0  0  0  0  0  0  0  0  0  0  0
   -4.2523   -5.3433   -4.2316 H   0  0  0  0  0  0  0  0  0  0  0  0
   -6.5943   -5.8304   -4.8066 H   0  0  0  0  0  0  0  0  0  0  0  0
  -10.9340   -3.4408   -4.8469 H   0  0  0  0  0  0  0  0  0  0  0  0
   -9.7878   -2.1009   -5.0271 H   0  0  0  0  0  0  0  0  0  0  0  0
   -9.9072   -4.0329   -2.6438 H   0  0  0  0  0  0  0  0  0  0  0  0
   -8.7850   -2.6775   -2.7952 H   0  0  0  0  0  0  0  0  0  0  0  0
  -10.5154   -2.3717   -2.6318 H   0  0  0  0  0  0  0  0  0  0  0  0
   -5.1576   -1.1583   -4.2938 H   0  0  0  0  0  0  0  0  0  0  0  0
   -4.1060   -4.7007   -1.8014 H   0  0  0  0  0  0  0  0  0  0  0  0
   -1.5469   -2.8688    1.5663 H   0  0  0  0  0  0  0  0  0  0  0  0
   -0.2577   -2.1974    4.7751 H   0  0  0  0  0  0  0  0  0  0  0  0
   -0.8968   -1.4145    3.3097 H   0  0  0  0  0  0  0  0  0  0  0  0
   -1.9172   -1.6466    4.7384 H   0  0  0  0  0  0  0  0  0  0  0  0
   -2.8288   -5.3859    6.9489 H   0  0  0  0  0  0  0  0  0  0  0  0
   -1.1734   -5.9809    6.6392 H   0  0  0  0  0  0  0  0  0  0  0  0
   -1.4435   -4.6343    7.7766 H   0  0  0  0  0  0  0  0  0  0  0  0
   -2.6711   -6.4088    4.8691 H   0  0  0  0  0  0  0  0  0  0  0  0
   -4.1550   -8.8797    2.2790 H   0  0  0  0  0  0  0  0  0  0  0  0
   -3.0883   -9.9796    4.0376 H   0  0  0  0  0  0  0  0  0  0  0  0
   -0.5416   -7.1288    3.2176 H   0  0  0  0  0  0  0  0  0  0  0  0
    1.4451   -6.7127    2.2747 H   0  0  0  0  0  0  0  0  0  0  0  0
    1.5086   -4.6960    0.8837 H   0  0  0  0  0  0  0  0  0  0  0  0
    1.2660   -0.4746    3.0292 H   0  0  0  0  0  0  0  0  0  0  0  0
    3.0358   -0.4815    2.8129 H   0  0  0  0  0  0  0  0  0  0  0  0
    2.8245    0.7394    0.6897 H   0  0  0  0  0  0  0  0  0  0  0  0
    1.9463    1.6267    1.9327 H   0  0  0  0  0  0  0  0  0  0  0  0
    1.0609    0.6406    0.7635 H   0  0  0  0  0  0  0  0  0  0  0  0
    2.1017   -4.2715    5.7329 H   0  0  0  0  0  0  0  0  0  0  0  0
    1.4967   -8.5588    9.6667 H   0  0  0  0  0  0  0  0  0  0  0  0
    1.1305  -10.2610   11.4072 H   0  0  0  0  0  0  0  0  0  0  0  0
   -0.9375  -14.7217   11.6822 H   0  0  0  0  0  0  0  0  0  0  0  0
   -0.4430  -14.6669    9.9805 H   0  0  0  0  0  0  0  0  0  0  0  0
   -2.8369  -13.9472   10.2591 H   0  0  0  0  0  0  0  0  0  0  0  0
   -1.8532  -12.6149    9.6484 H   0  0  0  0  0  0  0  0  0  0  0  0
   -2.3151  -12.6581   11.3531 H   0  0  0  0  0  0  0  0  0  0  0  0
    0.9346  -11.5642    6.6678 H   0  0  0  0  0  0  0  0  0  0  0  0
    3.7875   -8.7907    8.6381 H   0  0  0  0  0  0  0  0  0  0  0  0
    5.4825   -6.8961    8.0569 H   0  0  0  0  0  0  0  0  0  0  0  0
  1  2  2  0  0  0  0
  2  3  1  0  0  0  0
  3  4  2  0  0  0  0
  4  5  1  0  0  0  0
  5  6  2  0  0  0  0
  6  7  1  0  0  0  0
  7  8  2  0  0  0  0
  8  9  1  0  0  0  0
  9 10  1  0  0  0  0
 10 11  1  0  0  0  0
  8 12  1  0  0  0  0
 12 13  1  0  0  0  0
 12 14  2  0  0  0  0
  4 15  1  0  0  0  0
 15 16  2  0  0  0  0
 16 17  1  0  0  0  0
 17 18  1  0  0  0  0
 18 19  2  0  0  0  0
 19 20  1  0  0  0  0
 20 21  2  0  0  0  0
 21 22  1  0  0  0  0
 22 23  1  0  0  0  0
 23 24  1  0  0  0  0
 21 25  1  0  0  0  0
 25 26  2  0  0  0  0
 25 27  1  0  0  0  0
 17 28  2  0  0  0  0
 28 29  1  0  0  0  0
 16 30  1  0  0  0  0
 30 31  2  0  0  0  0
 31 32  1  0  0  0  0
 31 33  1  0  0  0  0
 33 34  1  0  0  0  0
 34 35  1  0  0  0  0
 35 36  2  0  0  0  0
 36 37  1  0  0  0  0
 37 38  1  0  0  0  0
 38 39  2  0  0  0  0
 39 40  1  0  0  0  0
 39 41  1  0  0  0  0
 41 42  1  0  0  0  0
 42 43  1  0  0  0  0
 41 44  2  0  0  0  0
 35 45  1  0  0  0  0
 45 46  2  0  0  0  0
 46 47  1  0  0  0  0
 47 48  2  0  0  0  0
 48 49  1  0  0  0  0
 49 50  2  0  0  0  0
 50 51  1  0  0  0  0
 51 52  2  0  0  0  0
 52 53  1  0  0  0  0
 53 54  2  0  0  0  0
 54 55  1  0  0  0  0
 55 56  1  0  0  0  0
 56 57  1  0  0  0  0
 54 58  1  0  0  0  0
 58 59  1  0  0  0  0
 58 60  2  0  0  0  0
 50 61  1  0  0  0  0
 61 62  2  0  0  0  0
 62 63  1  0  0  0  0
 63 64  1  0  0  0  0
 64 65  2  0  0  0  0
 65 66  1  0  0  0  0
 66 67  2  0  0  0  0
 67 68  1  0  0  0  0
 68 69  1  0  0  0  0
 69 70  1  0  0  0  0
 67 71  1  0  0  0  0
 71 72  2  0  0  0  0
 71 73  1  0  0  0  0
 63 74  2  0  0  0  0
 74 75  1  0  0  0  0
 62 76  1  0  0  0  0
 76 77  2  0  0  0  0
 77 78  1  0  0  0  0
 77 79  1  0  0  0  0
 79 80  2  0  0  0  0
 80 81  1  0  0  0  0
 81 82  2  0  0  0  0
 82 83  1  0  0  0  0
 83 84  2  0  0  0  0
 84 85  1  0  0  0  0
 85 86  2  0  0  0  0
 86 87  1  0  0  0  0
 87 88  1  0  0  0  0
 88 89  1  0  0  0  0
 86 90  1  0  0  0  0
 90 91  1  0  0  0  0
 90 92  2  0  0  0  0
 82 93  1  0  0  0  0
 93 94  2  0  0  0  0
 94 95  1  0  0  0  0
 95 96  1  0  0  0  0
 96 97  2  0  0  0  0
 97 98  1  0  0  0  0
 98 99  2  0  0  0  0
 99100  1  0  0  0  0
100101  1  0  0  0  0
101102  1  0  0  0  0
 99103  1  0  0  0  0
103104  2  0  0  0  0
103105  1  0  0  0  0
 95106  2  0  0  0  0
106107  1  0  0  0  0
 94108  1  0  0  0  0
108109  2  0  0  0  0
109110  1  0  0  0  0
109111  1  0  0  0  0
111112  1  0  0  0  0
112113  1  0  0  0  0
113114  2  0  0  0  0
114115  1  0  0  0  0
115116  1  0  0  0  0
116117  2  0  0  0  0
117118  1  0  0  0  0
117119  1  0  0  0  0
119120  1  0  0  0  0
120121  1  0  0  0  0
119122  2  0  0  0  0
113123  1  0  0  0  0
123124  2  0  0  0  0
124125  1  0  0  0  0
125126  2  0  0  0  0
126127  1  0  0  0  0
127128  2  0  0  0  0
128129  1  0  0  0  0
129130  2  0  0  0  0
130131  1  0  0  0  0
131132  2  0  0  0  0
132133  1  0  0  0  0
133134  1  0  0  0  0
134135  1  0  0  0  0
132136  1  0  0  0  0
136137  1  0  0  0  0
136138  2  0  0  0  0
128139  1  0  0  0  0
139140  2  0  0  0  0
140141  1  0  0  0  0
141142  1  0  0  0  0
142143  2  0  0  0  0
143144  1  0  0  0  0
144145  2  0  0  0  0
145146  1  0  0  0  0
146147  1  0  0  0  0
147148  1  0  0  0  0
145149  1  0  0  0  0
149150  2  0  0  0  0
149151  1  0  0  0  0
141152  2  0  0  0  0
152153  1  0  0  0  0
140154  1  0  0  0  0
154155  2  0  0  0  0
155156  1  0  0  0  0
 29  1  1  0  0  0  0
 37 33  2  0  0  0  0
 75 47  1  0  0  0  0
107 79  1  0  0  0  0
115111  2  0  0  0  0
153125  1  0  0  0  0
 28  3  1  0  0  0  0
 44 36  1  0  0  0  0
 74 49  1  0  0  0  0
106 81  1  0  0  0  0
122114  1  0  0  0  0
152127  1  0  0  0  0
 14  5  1  0  0  0  0
 32 15  1  0  0  0  0
 60 51  1  0  0  0  0
 78 61  1  0  0  0  0
 92 83  1  0  0  0  0
110 93  1  0  0  0  0
138129  1  0  0  0  0
156139  1  0  0  0  0
 26 18  1  0  0  0  0
 72 64  1  0  0  0  0
104 96  1  0  0  0  0
150142  1  0  0  0  0
  1157  1  0  0  0  0
  2158  1  0  0  0  0
  6159  1  0  0  0  0
  7160  1  0  0  0  0
 10161  1  0  0  0  0
 10162  1  0  0  0  0
 11163  1  0  0  0  0
 11164  1  0  0  0  0
 11165  1  0  0  0  0
 14166  1  0  0  0  0
 19167  1  0  0  0  0
 20168  1  0  0  0  0
 23169  1  0  0  0  0
 23170  1  0  0  0  0
 24171  1  0  0  0  0
 24172  1  0  0  0  0
 24173  1  0  0  0  0
 26174  1  0  0  0  0
 30175  1  0  0  0  0
 38176  1  0  0  0  0
 40177  1  0  0  0  0
 40178  1  0  0  0  0
 40179  1  0  0  0  0
 43180  1  0  0  0  0
 43181  1  0  0  0  0
 43182  1  0  0  0  0
 44183  1  0  0  0  0
 45184  1  0  0  0  0
 46185  1  0  0  0  0
 48186  1  0  0  0  0
 52187  1  0  0  0  0
 53188  1  0  0  0  0
 56189  1  0  0  0  0
 56190  1  0  0  0  0
 57191  1  0  0  0  0
 57192  1  0  0  0  0
 57193  1  0  0  0  0
 60194  1  0  0  0  0
 65195  1  0  0  0  0
 66196  1  0  0  0  0
 69197  1  0  0  0  0
 69198  1  0  0  0  0
 70199  1  0  0  0  0
 70200  1  0  0  0  0
 70201  1  0  0  0  0
 72202  1  0  0  0  0
 76203  1  0  0  0  0
 80204  1  0  0  0  0
 84205  1  0  0  0  0
 85206  1  0  0  0  0
 88207  1  0  0  0  0
 88208  1  0  0  0  0
 89209  1  0  0  0  0
 89210  1  0  0  0  0
 89211  1  0  0  0  0
 92212  1  0  0  0  0
 97213  1  0  0  0  0
 98214  1  0  0  0  0
101215  1  0  0  0  0
101216  1  0  0  0  0
102217  1  0  0  0  0
102218  1  0  0  0  0
102219  1  0  0  0  0
104220  1  0  0  0  0
108221  1  0  0  0  0
116222  1  0  0  0  0
118223  1  0  0  0  0
118224  1  0  0  0  0
118225  1  0  0  0  0
121226  1  0  0  0  0
121227  1  0  0  0  0
121228  1  0  0  0  0
122229  1  0  0  0  0
123230  1  0  0  0  0
124231  1  0  0  0  0
126232  1  0  0  0  0
130233  1  0  0  0  0
131234  1  0  0  0  0
134235  1  0  0  0  0
134236  1  0  0  0  0
135237  1  0  0  0  0
135238  1  0  0  0  0
135239  1  0  0  0  0
138240  1  0  0  0  0
143241  1  0  0  0  0
144242  1  0  0  0  0
147243  1  0  0  0  0
147244  1  0  0  0  0
148245  1  0  0  0  0
148246  1  0  0  0  0
148247  1  0  0  0  0
150248  1  0  0  0  0
154249  1  0  0  0  0
155250  1  0  0  0  0
M  END
