
  xtb     03022216553D
 energy: -415.195727063899 gnorm: 0.000796620375 xtb: 6.4.1 (unknown)
218241  0     0  0            999 V2000
    2.1774   -5.3065    9.9962 C   0  0  0  0  0  0  0  0  0  0  0  0
    2.4906   -5.2389    8.6865 C   0  0  0  0  0  0  0  0  0  0  0  0
    1.3451   -5.2934    7.8393 C   0  0  0  0  0  0  0  0  0  0  0  0
    1.2971   -5.2918    6.4354 C   0  0  0  0  0  0  0  0  0  0  0  0
    2.4956   -5.1076    5.6317 C   0  0  0  0  0  0  0  0  0  0  0  0
    3.5634   -3.7648    5.9358 S   0  0  0  0  0  0  0  0  0  0  0  0
    4.6108   -4.1880    4.6235 C   0  0  0  0  0  0  0  0  0  0  0  0
    5.8496   -3.4120    4.3389 C   0  0  0  0  0  0  0  0  0  0  0  0
    5.5840   -1.9169    4.1809 C   0  0  0  0  0  0  0  0  0  0  0  0
    4.1392   -5.2996    3.9927 C   0  0  0  0  0  0  0  0  0  0  0  0
    4.9082   -6.0324    2.6462 Cl  0  0  0  0  0  0  0  0  0  0  0  0
    2.9443   -5.8242    4.5574 C   0  0  0  0  0  0  0  0  0  0  0  0
    2.2249   -7.2744    3.9944 Cl  0  0  0  0  0  0  0  0  0  0  0  0
    0.0391   -5.4030    5.8523 C   0  0  0  0  0  0  0  0  0  0  0  0
   -1.1611   -5.4647    6.6031 C   0  0  0  0  0  0  0  0  0  0  0  0
   -1.1073   -5.4964    8.0057 C   0  0  0  0  0  0  0  0  0  0  0  0
   -2.3195   -5.6188    8.7967 C   0  0  0  0  0  0  0  0  0  0  0  0
   -2.6934   -4.5057   10.0784 S   0  0  0  0  0  0  0  0  0  0  0  0
   -4.1829   -5.3064   10.4434 C   0  0  0  0  0  0  0  0  0  0  0  0
   -5.1070   -4.7835   11.4869 C   0  0  0  0  0  0  0  0  0  0  0  0
   -6.0651   -3.7469   10.8942 C   0  0  0  0  0  0  0  0  0  0  0  0
   -4.3663   -6.3715    9.6122 C   0  0  0  0  0  0  0  0  0  0  0  0
   -3.3115   -6.5535    8.6789 C   0  0  0  0  0  0  0  0  0  0  0  0
   -3.2704   -7.8668    7.5741 Cl  0  0  0  0  0  0  0  0  0  0  0  0
   -5.7301   -7.4112    9.6766 Cl  0  0  0  0  0  0  0  0  0  0  0  0
    0.1509   -5.4066    8.5893 C   0  0  0  0  0  0  0  0  0  0  0  0
    0.4800   -5.4400   10.2987 S   0  0  0  0  0  0  0  0  0  0  0  0
   -2.3123   -5.4072    5.7730 C   0  0  0  0  0  0  0  0  0  0  0  0
   -2.0175   -5.3478    4.4465 C   0  0  0  0  0  0  0  0  0  0  0  0
   -0.2926   -5.3675    4.1489 S   0  0  0  0  0  0  0  0  0  0  0  0
   -2.8965   -5.1725    3.3291 C   0  0  0  0  0  0  0  0  0  0  0  0
   -4.0653   -4.4739    3.2909 C   0  0  0  0  0  0  0  0  0  0  0  0
   -4.5702   -4.2904    1.9774 C   0  0  0  0  0  0  0  0  0  0  0  0
   -5.6479   -3.4702    1.5810 C   0  0  0  0  0  0  0  0  0  0  0  0
   -6.5639   -2.9271    2.5631 C   0  0  0  0  0  0  0  0  0  0  0  0
   -7.0561   -1.2587    2.5490 S   0  0  0  0  0  0  0  0  0  0  0  0
   -8.0619   -1.4613    3.9413 C   0  0  0  0  0  0  0  0  0  0  0  0
   -8.7923   -0.3100    4.5386 C   0  0  0  0  0  0  0  0  0  0  0  0
   -7.9009    0.4516    5.5228 C   0  0  0  0  0  0  0  0  0  0  0  0
   -8.0095   -2.7506    4.3819 C   0  0  0  0  0  0  0  0  0  0  0  0
   -8.8790   -3.3329    5.7425 Cl  0  0  0  0  0  0  0  0  0  0  0  0
   -7.1673   -3.5859    3.6026 C   0  0  0  0  0  0  0  0  0  0  0  0
   -7.0156   -5.2692    3.9059 Cl  0  0  0  0  0  0  0  0  0  0  0  0
   -5.7215   -3.1593    0.2274 C   0  0  0  0  0  0  0  0  0  0  0  0
   -4.8917   -3.7812   -0.7356 C   0  0  0  0  0  0  0  0  0  0  0  0
   -3.9351   -4.7432   -0.3582 C   0  0  0  0  0  0  0  0  0  0  0  0
   -3.1343   -5.4047   -1.3672 C   0  0  0  0  0  0  0  0  0  0  0  0
   -1.4088   -5.5390   -1.2279 S   0  0  0  0  0  0  0  0  0  0  0  0
   -1.2562   -6.2945   -2.7728 C   0  0  0  0  0  0  0  0  0  0  0  0
    0.0669   -6.7452   -3.2832 C   0  0  0  0  0  0  0  0  0  0  0  0
    0.4324   -8.1174   -2.7128 C   0  0  0  0  0  0  0  0  0  0  0  0
   -2.4838   -6.4473   -3.3474 C   0  0  0  0  0  0  0  0  0  0  0  0
   -3.5494   -5.9417   -2.5591 C   0  0  0  0  0  0  0  0  0  0  0  0
   -5.1928   -6.0903   -3.0362 Cl  0  0  0  0  0  0  0  0  0  0  0  0
   -2.7363   -7.1670   -4.8852 Cl  0  0  0  0  0  0  0  0  0  0  0  0
   -3.7389   -4.9012    1.0073 C   0  0  0  0  0  0  0  0  0  0  0  0
   -2.4020   -5.7320    1.7461 S   0  0  0  0  0  0  0  0  0  0  0  0
   -4.9818   -3.1572   -1.9968 C   0  0  0  0  0  0  0  0  0  0  0  0
   -5.8135   -2.0726   -2.0184 C   0  0  0  0  0  0  0  0  0  0  0  0
   -6.6667   -1.8821   -0.4981 S   0  0  0  0  0  0  0  0  0  0  0  0
   -5.7075   -1.0264   -2.9858 C   0  0  0  0  0  0  0  0  0  0  0  0
   -4.7980   -1.0383   -4.0071 C   0  0  0  0  0  0  0  0  0  0  0  0
   -4.4416    0.2481   -4.4580 C   0  0  0  0  0  0  0  0  0  0  0  0
   -3.3391    0.5710   -5.2652 C   0  0  0  0  0  0  0  0  0  0  0  0
   -2.4531   -0.4734   -5.7584 C   0  0  0  0  0  0  0  0  0  0  0  0
   -2.0965   -0.6438   -7.4496 S   0  0  0  0  0  0  0  0  0  0  0  0
   -1.1062   -2.0390   -7.1808 C   0  0  0  0  0  0  0  0  0  0  0  0
   -0.4055   -2.7116   -8.3090 C   0  0  0  0  0  0  0  0  0  0  0  0
    0.8239   -1.9097   -8.7440 C   0  0  0  0  0  0  0  0  0  0  0  0
   -1.0525   -2.3329   -5.8512 C   0  0  0  0  0  0  0  0  0  0  0  0
   -0.1852   -3.6570   -5.1897 Cl  0  0  0  0  0  0  0  0  0  0  0  0
   -1.8114   -1.4455   -5.0413 C   0  0  0  0  0  0  0  0  0  0  0  0
   -1.8312   -1.5674   -3.3240 Cl  0  0  0  0  0  0  0  0  0  0  0  0
   -3.0799    1.9164   -5.4506 C   0  0  0  0  0  0  0  0  0  0  0  0
   -3.8881    2.9502   -4.9152 C   0  0  0  0  0  0  0  0  0  0  0  0
   -4.9984    2.6193   -4.1080 C   0  0  0  0  0  0  0  0  0  0  0  0
   -5.8440    3.6565   -3.5413 C   0  0  0  0  0  0  0  0  0  0  0  0
   -6.5663    4.8479   -4.5871 S   0  0  0  0  0  0  0  0  0  0  0  0
   -7.3768    5.6287   -3.2730 C   0  0  0  0  0  0  0  0  0  0  0  0
   -8.2838    6.7868   -3.5013 C   0  0  0  0  0  0  0  0  0  0  0  0
   -9.6963    6.3124   -3.8516 C   0  0  0  0  0  0  0  0  0  0  0  0
   -7.0979    4.9903   -2.1026 C   0  0  0  0  0  0  0  0  0  0  0  0
   -6.2279    3.8750   -2.2459 C   0  0  0  0  0  0  0  0  0  0  0  0
   -5.6463    3.0065   -0.8895 Cl  0  0  0  0  0  0  0  0  0  0  0  0
   -7.7112    5.4823   -0.5778 Cl  0  0  0  0  0  0  0  0  0  0  0  0
   -5.2144    1.2696   -3.8517 C   0  0  0  0  0  0  0  0  0  0  0  0
   -6.3472    0.5830   -2.7137 S   0  0  0  0  0  0  0  0  0  0  0  0
   -3.3011    4.2214   -5.1205 C   0  0  0  0  0  0  0  0  0  0  0  0
   -2.0620    4.1819   -5.7089 C   0  0  0  0  0  0  0  0  0  0  0  0
   -1.6344    2.5449   -6.1791 S   0  0  0  0  0  0  0  0  0  0  0  0
   -1.1141    5.2366   -5.7745 C   0  0  0  0  0  0  0  0  0  0  0  0
   -1.5931    6.8421   -5.2986 S   0  0  0  0  0  0  0  0  0  0  0  0
    0.0410    7.3701   -5.1124 C   0  0  0  0  0  0  0  0  0  0  0  0
    0.9235    6.3780   -5.5267 C   0  0  0  0  0  0  0  0  0  0  0  0
    0.2762    5.1673   -5.9203 C   0  0  0  0  0  0  0  0  0  0  0  0
    1.0843    4.0836   -6.3271 C   0  0  0  0  0  0  0  0  0  0  0  0
    2.4445    4.1773   -6.3255 C   0  0  0  0  0  0  0  0  0  0  0  0
    3.3128    3.0303   -6.7280 C   0  0  0  0  0  0  0  0  0  0  0  0
    3.0798    5.4025   -5.9435 C   0  0  0  0  0  0  0  0  0  0  0  0
    4.4375    5.3755   -5.9980 O   0  0  0  0  0  0  0  0  0  0  0  0
    5.1454    6.5284   -5.6142 C   0  0  0  0  0  0  0  0  0  0  0  0
    2.3318    6.4842   -5.5720 C   0  0  0  0  0  0  0  0  0  0  0  0
    0.4328    8.5723   -4.4009 C   0  0  0  0  0  0  0  0  0  0  0  0
    1.2015    8.4676   -3.3007 C   0  0  0  0  0  0  0  0  0  0  0  0
    1.4008    7.1701   -2.6904 C   0  0  0  0  0  0  0  0  0  0  0  0
    2.9396    6.4417   -2.3957 S   0  0  0  0  0  0  0  0  0  0  0  0
    2.2387    4.8847   -2.0525 C   0  0  0  0  0  0  0  0  0  0  0  0
    0.8407    4.9528   -2.1284 C   0  0  0  0  0  0  0  0  0  0  0  0
    0.3763    6.2645   -2.4269 C   0  0  0  0  0  0  0  0  0  0  0  0
   -1.0060    6.5436   -2.3446 C   0  0  0  0  0  0  0  0  0  0  0  0
   -1.8999    5.5484   -2.0947 C   0  0  0  0  0  0  0  0  0  0  0  0
   -3.3555    5.8312   -1.9164 C   0  0  0  0  0  0  0  0  0  0  0  0
   -1.4376    4.1959   -1.9845 C   0  0  0  0  0  0  0  0  0  0  0  0
   -2.4268    3.2700   -1.8846 O   0  0  0  0  0  0  0  0  0  0  0  0
   -2.0786    1.9089   -1.8600 C   0  0  0  0  0  0  0  0  0  0  0  0
   -0.0961    3.9123   -1.9641 C   0  0  0  0  0  0  0  0  0  0  0  0
    2.9930    3.7515   -1.6924 C   0  0  0  0  0  0  0  0  0  0  0  0
    4.3192    3.6745   -1.4251 C   0  0  0  0  0  0  0  0  0  0  0  0
    4.9320    2.4644   -0.9982 C   0  0  0  0  0  0  0  0  0  0  0  0
    6.2223    2.2581   -0.5928 C   0  0  0  0  0  0  0  0  0  0  0  0
    6.4955    0.9245   -0.1996 C   0  0  0  0  0  0  0  0  0  0  0  0
    7.6800    0.3937    0.3386 C   0  0  0  0  0  0  0  0  0  0  0  0
    8.8584    1.2166    0.5548 C   0  0  0  0  0  0  0  0  0  0  0  0
    9.6013    2.1153   -0.7348 S   0  0  0  0  0  0  0  0  0  0  0  0
   10.8489    2.7230    0.3001 C   0  0  0  0  0  0  0  0  0  0  0  0
   11.9399    3.5872   -0.2287 C   0  0  0  0  0  0  0  0  0  0  0  0
   13.0840    2.7398   -0.7905 C   0  0  0  0  0  0  0  0  0  0  0  0
   10.6877    2.2449    1.5657 C   0  0  0  0  0  0  0  0  0  0  0  0
   11.7293    2.6311    2.8743 Cl  0  0  0  0  0  0  0  0  0  0  0  0
    9.5595    1.3949    1.7145 C   0  0  0  0  0  0  0  0  0  0  0  0
    9.0948    0.7396    3.2279 Cl  0  0  0  0  0  0  0  0  0  0  0  0
    7.6784   -0.9571    0.6720 C   0  0  0  0  0  0  0  0  0  0  0  0
    6.5473   -1.7894    0.5140 C   0  0  0  0  0  0  0  0  0  0  0  0
    5.3510   -1.2541    0.0122 C   0  0  0  0  0  0  0  0  0  0  0  0
    4.1443   -2.0558   -0.1012 C   0  0  0  0  0  0  0  0  0  0  0  0
    3.5144   -2.9187    1.2733 S   0  0  0  0  0  0  0  0  0  0  0  0
    2.1241   -3.4608    0.4027 C   0  0  0  0  0  0  0  0  0  0  0  0
    1.1159   -4.3427    1.0471 C   0  0  0  0  0  0  0  0  0  0  0  0
    1.4166   -5.8155    0.7686 C   0  0  0  0  0  0  0  0  0  0  0  0
    2.1683   -3.0087   -0.8815 C   0  0  0  0  0  0  0  0  0  0  0  0
    3.3088   -2.2129   -1.1716 C   0  0  0  0  0  0  0  0  0  0  0  0
    3.6154   -1.6014   -2.7424 Cl  0  0  0  0  0  0  0  0  0  0  0  0
    0.9561   -3.3221   -2.0513 Cl  0  0  0  0  0  0  0  0  0  0  0  0
    5.3576    0.0898   -0.3353 C   0  0  0  0  0  0  0  0  0  0  0  0
    3.9870    0.9850   -0.9131 S   0  0  0  0  0  0  0  0  0  0  0  0
    6.8298   -3.1398    0.8698 C   0  0  0  0  0  0  0  0  0  0  0  0
    8.1036   -3.3167    1.2768 C   0  0  0  0  0  0  0  0  0  0  0  0
    9.0430   -1.8642    1.2629 S   0  0  0  0  0  0  0  0  0  0  0  0
    2.8463   -5.2904   10.8342 H   0  0  0  0  0  0  0  0  0  0  0  0
    3.4970   -5.1635    8.3187 H   0  0  0  0  0  0  0  0  0  0  0  0
    6.2982   -3.8053    3.4258 H   0  0  0  0  0  0  0  0  0  0  0  0
    6.5585   -3.5620    5.1589 H   0  0  0  0  0  0  0  0  0  0  0  0
    5.1476   -1.5105    5.0902 H   0  0  0  0  0  0  0  0  0  0  0  0
    4.9003   -1.7393    3.3549 H   0  0  0  0  0  0  0  0  0  0  0  0
    6.5154   -1.3951    3.9774 H   0  0  0  0  0  0  0  0  0  0  0  0
   -5.6801   -5.6167   11.8979 H   0  0  0  0  0  0  0  0  0  0  0  0
   -4.5262   -4.3264   12.2895 H   0  0  0  0  0  0  0  0  0  0  0  0
   -5.5069   -2.9075   10.4863 H   0  0  0  0  0  0  0  0  0  0  0  0
   -6.7389   -3.3784   11.6629 H   0  0  0  0  0  0  0  0  0  0  0  0
   -6.6556   -4.1922   10.0975 H   0  0  0  0  0  0  0  0  0  0  0  0
   -3.3180   -5.4029    6.1502 H   0  0  0  0  0  0  0  0  0  0  0  0
   -4.5011   -4.0232    4.1633 H   0  0  0  0  0  0  0  0  0  0  0  0
   -9.1143    0.3645    3.7437 H   0  0  0  0  0  0  0  0  0  0  0  0
   -9.6745   -0.6858    5.0602 H   0  0  0  0  0  0  0  0  0  0  0  0
   -7.5818   -0.2050    6.3284 H   0  0  0  0  0  0  0  0  0  0  0  0
   -8.4469    1.2881    5.9503 H   0  0  0  0  0  0  0  0  0  0  0  0
   -7.0189    0.8330    5.0140 H   0  0  0  0  0  0  0  0  0  0  0  0
    0.0226   -6.7995   -4.3727 H   0  0  0  0  0  0  0  0  0  0  0  0
    0.8302   -6.0171   -3.0027 H   0  0  0  0  0  0  0  0  0  0  0  0
    0.4662   -8.0794   -1.6263 H   0  0  0  0  0  0  0  0  0  0  0  0
   -0.3057   -8.8579   -3.0113 H   0  0  0  0  0  0  0  0  0  0  0  0
    1.4061   -8.4276   -3.0824 H   0  0  0  0  0  0  0  0  0  0  0  0
   -4.3495   -3.4284   -2.8198 H   0  0  0  0  0  0  0  0  0  0  0  0
   -4.3398   -1.9335   -4.3797 H   0  0  0  0  0  0  0  0  0  0  0  0
   -1.0894   -2.8120   -9.1544 H   0  0  0  0  0  0  0  0  0  0  0  0
   -0.1009   -3.7083   -7.9849 H   0  0  0  0  0  0  0  0  0  0  0  0
    1.3243   -2.4105   -9.5684 H   0  0  0  0  0  0  0  0  0  0  0  0
    0.5281   -0.9137   -9.0672 H   0  0  0  0  0  0  0  0  0  0  0  0
    1.5240   -1.8142   -7.9168 H   0  0  0  0  0  0  0  0  0  0  0  0
   -8.3162    7.3905   -2.5924 H   0  0  0  0  0  0  0  0  0  0  0  0
   -7.8931    7.3986   -4.3162 H   0  0  0  0  0  0  0  0  0  0  0  0
   -9.6785    5.7119   -4.7580 H   0  0  0  0  0  0  0  0  0  0  0  0
  -10.1018    5.7094   -3.0431 H   0  0  0  0  0  0  0  0  0  0  0  0
  -10.3488    7.1665   -4.0109 H   0  0  0  0  0  0  0  0  0  0  0  0
   -3.7349    5.1426   -4.7773 H   0  0  0  0  0  0  0  0  0  0  0  0
    0.6273    3.1654   -6.6566 H   0  0  0  0  0  0  0  0  0  0  0  0
    3.9583    2.7472   -5.8976 H   0  0  0  0  0  0  0  0  0  0  0  0
    2.7122    2.1742   -7.0226 H   0  0  0  0  0  0  0  0  0  0  0  0
    3.9591    3.3208   -7.5545 H   0  0  0  0  0  0  0  0  0  0  0  0
    6.1994    6.2709   -5.7051 H   0  0  0  0  0  0  0  0  0  0  0  0
    4.9208    7.3745   -6.2718 H   0  0  0  0  0  0  0  0  0  0  0  0
    4.9255    6.8054   -4.5782 H   0  0  0  0  0  0  0  0  0  0  0  0
    2.7803    7.4272   -5.3047 H   0  0  0  0  0  0  0  0  0  0  0  0
    0.1266    9.5358   -4.7843 H   0  0  0  0  0  0  0  0  0  0  0  0
    1.6545    9.3377   -2.8456 H   0  0  0  0  0  0  0  0  0  0  0  0
   -1.3403    7.5650   -2.4499 H   0  0  0  0  0  0  0  0  0  0  0  0
   -3.9475    5.0999   -2.4566 H   0  0  0  0  0  0  0  0  0  0  0  0
   -3.6012    6.8329   -2.2595 H   0  0  0  0  0  0  0  0  0  0  0  0
   -3.6210    5.7460   -0.8628 H   0  0  0  0  0  0  0  0  0  0  0  0
   -3.0202    1.3620   -1.8494 H   0  0  0  0  0  0  0  0  0  0  0  0
   -1.5075    1.6254   -2.7502 H   0  0  0  0  0  0  0  0  0  0  0  0
   -1.5045    1.6537   -0.9637 H   0  0  0  0  0  0  0  0  0  0  0  0
    0.2581    2.9051   -1.8197 H   0  0  0  0  0  0  0  0  0  0  0  0
    2.4124    2.8432   -1.5854 H   0  0  0  0  0  0  0  0  0  0  0  0
    4.9516    4.5488   -1.4972 H   0  0  0  0  0  0  0  0  0  0  0  0
    6.9540    3.0449   -0.5657 H   0  0  0  0  0  0  0  0  0  0  0  0
   12.3144    4.2143    0.5826 H   0  0  0  0  0  0  0  0  0  0  0  0
   11.5435    4.2309   -1.0159 H   0  0  0  0  0  0  0  0  0  0  0  0
   13.8749    3.3826   -1.1676 H   0  0  0  0  0  0  0  0  0  0  0  0
   12.7251    2.1127   -1.6032 H   0  0  0  0  0  0  0  0  0  0  0  0
   13.4949    2.1002   -0.0135 H   0  0  0  0  0  0  0  0  0  0  0  0
    0.1252   -4.0999    0.6584 H   0  0  0  0  0  0  0  0  0  0  0  0
    1.1227   -4.1687    2.1235 H   0  0  0  0  0  0  0  0  0  0  0  0
    2.3949   -6.0830    1.1585 H   0  0  0  0  0  0  0  0  0  0  0  0
    0.6645   -6.4373    1.2450 H   0  0  0  0  0  0  0  0  0  0  0  0
    1.4023   -6.0048   -0.3012 H   0  0  0  0  0  0  0  0  0  0  0  0
    6.1072   -3.9324    0.8039 H   0  0  0  0  0  0  0  0  0  0  0  0
    8.5748   -4.2269    1.5930 H   0  0  0  0  0  0  0  0  0  0  0  0
  1  2  2  0  0  0  0
  2  3  1  0  0  0  0
  3  4  2  0  0  0  0
  4  5  1  0  0  0  0
  5  6  1  0  0  0  0
  6  7  1  0  0  0  0
  7  8  1  0  0  0  0
  8  9  1  0  0  0  0
  7 10  2  0  0  0  0
 10 11  1  0  0  0  0
 10 12  1  0  0  0  0
 12 13  1  0  0  0  0
  4 14  1  0  0  0  0
 14 15  2  0  0  0  0
 15 16  1  0  0  0  0
 16 17  1  0  0  0  0
 17 18  1  0  0  0  0
 18 19  1  0  0  0  0
 19 20  1  0  0  0  0
 20 21  1  0  0  0  0
 19 22  2  0  0  0  0
 22 23  1  0  0  0  0
 23 24  1  0  0  0  0
 22 25  1  0  0  0  0
 16 26  2  0  0  0  0
 26 27  1  0  0  0  0
 15 28  1  0  0  0  0
 28 29  2  0  0  0  0
 29 30  1  0  0  0  0
 29 31  1  0  0  0  0
 31 32  2  0  0  0  0
 32 33  1  0  0  0  0
 33 34  2  0  0  0  0
 34 35  1  0  0  0  0
 35 36  1  0  0  0  0
 36 37  1  0  0  0  0
 37 38  1  0  0  0  0
 38 39  1  0  0  0  0
 37 40  2  0  0  0  0
 40 41  1  0  0  0  0
 40 42  1  0  0  0  0
 42 43  1  0  0  0  0
 34 44  1  0  0  0  0
 44 45  2  0  0  0  0
 45 46  1  0  0  0  0
 46 47  1  0  0  0  0
 47 48  1  0  0  0  0
 48 49  1  0  0  0  0
 49 50  1  0  0  0  0
 50 51  1  0  0  0  0
 49 52  2  0  0  0  0
 52 53  1  0  0  0  0
 53 54  1  0  0  0  0
 52 55  1  0  0  0  0
 46 56  2  0  0  0  0
 56 57  1  0  0  0  0
 45 58  1  0  0  0  0
 58 59  2  0  0  0  0
 59 60  1  0  0  0  0
 59 61  1  0  0  0  0
 61 62  2  0  0  0  0
 62 63  1  0  0  0  0
 63 64  2  0  0  0  0
 64 65  1  0  0  0  0
 65 66  1  0  0  0  0
 66 67  1  0  0  0  0
 67 68  1  0  0  0  0
 68 69  1  0  0  0  0
 67 70  2  0  0  0  0
 70 71  1  0  0  0  0
 70 72  1  0  0  0  0
 72 73  1  0  0  0  0
 64 74  1  0  0  0  0
 74 75  2  0  0  0  0
 75 76  1  0  0  0  0
 76 77  1  0  0  0  0
 77 78  1  0  0  0  0
 78 79  1  0  0  0  0
 79 80  1  0  0  0  0
 80 81  1  0  0  0  0
 79 82  2  0  0  0  0
 82 83  1  0  0  0  0
 83 84  1  0  0  0  0
 82 85  1  0  0  0  0
 76 86  2  0  0  0  0
 86 87  1  0  0  0  0
 75 88  1  0  0  0  0
 88 89  2  0  0  0  0
 89 90  1  0  0  0  0
 89 91  1  0  0  0  0
 91 92  1  0  0  0  0
 92 93  1  0  0  0  0
 93 94  2  0  0  0  0
 94 95  1  0  0  0  0
 95 96  1  0  0  0  0
 96 97  2  0  0  0  0
 97 98  1  0  0  0  0
 97 99  1  0  0  0  0
 99100  1  0  0  0  0
100101  1  0  0  0  0
 99102  2  0  0  0  0
 93103  1  0  0  0  0
103104  2  0  0  0  0
104105  1  0  0  0  0
105106  1  0  0  0  0
106107  1  0  0  0  0
107108  2  0  0  0  0
108109  1  0  0  0  0
109110  1  0  0  0  0
110111  2  0  0  0  0
111112  1  0  0  0  0
111113  1  0  0  0  0
113114  1  0  0  0  0
114115  1  0  0  0  0
113116  2  0  0  0  0
107117  1  0  0  0  0
117118  2  0  0  0  0
118119  1  0  0  0  0
119120  2  0  0  0  0
120121  1  0  0  0  0
121122  2  0  0  0  0
122123  1  0  0  0  0
123124  1  0  0  0  0
124125  1  0  0  0  0
125126  1  0  0  0  0
126127  1  0  0  0  0
125128  2  0  0  0  0
128129  1  0  0  0  0
128130  1  0  0  0  0
130131  1  0  0  0  0
122132  1  0  0  0  0
132133  2  0  0  0  0
133134  1  0  0  0  0
134135  1  0  0  0  0
135136  1  0  0  0  0
136137  1  0  0  0  0
137138  1  0  0  0  0
138139  1  0  0  0  0
137140  2  0  0  0  0
140141  1  0  0  0  0
141142  1  0  0  0  0
140143  1  0  0  0  0
134144  2  0  0  0  0
144145  1  0  0  0  0
133146  1  0  0  0  0
146147  2  0  0  0  0
147148  1  0  0  0  0
 27  1  1  0  0  0  0
 57 31  1  0  0  0  0
 87 61  1  0  0  0  0
 95 91  2  0  0  0  0
109105  2  0  0  0  0
145119  1  0  0  0  0
 26  3  1  0  0  0  0
 56 33  1  0  0  0  0
 86 63  1  0  0  0  0
102 94  1  0  0  0  0
116108  1  0  0  0  0
144121  1  0  0  0  0
 12  5  2  0  0  0  0
 30 14  1  0  0  0  0
 42 35  2  0  0  0  0
 60 44  1  0  0  0  0
 72 65  2  0  0  0  0
 90 74  1  0  0  0  0
130123  2  0  0  0  0
148132  1  0  0  0  0
 23 17  2  0  0  0  0
 53 47  2  0  0  0  0
 83 77  2  0  0  0  0
141135  2  0  0  0  0
  1149  1  0  0  0  0
  2150  1  0  0  0  0
  8151  1  0  0  0  0
  8152  1  0  0  0  0
  9153  1  0  0  0  0
  9154  1  0  0  0  0
  9155  1  0  0  0  0
 20156  1  0  0  0  0
 20157  1  0  0  0  0
 21158  1  0  0  0  0
 21159  1  0  0  0  0
 21160  1  0  0  0  0
 28161  1  0  0  0  0
 32162  1  0  0  0  0
 38163  1  0  0  0  0
 38164  1  0  0  0  0
 39165  1  0  0  0  0
 39166  1  0  0  0  0
 39167  1  0  0  0  0
 50168  1  0  0  0  0
 50169  1  0  0  0  0
 51170  1  0  0  0  0
 51171  1  0  0  0  0
 51172  1  0  0  0  0
 58173  1  0  0  0  0
 62174  1  0  0  0  0
 68175  1  0  0  0  0
 68176  1  0  0  0  0
 69177  1  0  0  0  0
 69178  1  0  0  0  0
 69179  1  0  0  0  0
 80180  1  0  0  0  0
 80181  1  0  0  0  0
 81182  1  0  0  0  0
 81183  1  0  0  0  0
 81184  1  0  0  0  0
 88185  1  0  0  0  0
 96186  1  0  0  0  0
 98187  1  0  0  0  0
 98188  1  0  0  0  0
 98189  1  0  0  0  0
101190  1  0  0  0  0
101191  1  0  0  0  0
101192  1  0  0  0  0
102193  1  0  0  0  0
103194  1  0  0  0  0
104195  1  0  0  0  0
110196  1  0  0  0  0
112197  1  0  0  0  0
112198  1  0  0  0  0
112199  1  0  0  0  0
115200  1  0  0  0  0
115201  1  0  0  0  0
115202  1  0  0  0  0
116203  1  0  0  0  0
117204  1  0  0  0  0
118205  1  0  0  0  0
120206  1  0  0  0  0
126207  1  0  0  0  0
126208  1  0  0  0  0
127209  1  0  0  0  0
127210  1  0  0  0  0
127211  1  0  0  0  0
138212  1  0  0  0  0
138213  1  0  0  0  0
139214  1  0  0  0  0
139215  1  0  0  0  0
139216  1  0  0  0  0
146217  1  0  0  0  0
147218  1  0  0  0  0
M  END
