224

C          6.25210       -2.87100      -10.21590
C          5.38510       -2.40330       -9.29590
C          5.85790       -1.23210       -8.63220
C          5.21930       -0.48040       -7.63600
C          3.90750       -0.86840       -7.09670
C          3.75670       -1.10320       -5.73170
C          2.54810       -1.51880       -5.21770
C          1.43830       -1.69940       -6.04030
S         -0.07170       -2.22060       -5.28090
C         -0.83740       -3.31730       -6.53910
C         -1.74090       -4.31310       -5.83880
C          1.59090       -1.41830       -7.39370
F          0.54150       -1.52230       -8.24230
C          2.80400       -1.02910       -7.92590
C          5.90930        0.61680       -7.14650
C          7.20450        0.98560       -7.58660
C          7.84230        0.23420       -8.58640
C          9.17090        0.60220       -9.08920
C          9.43620        1.89990       -9.51710
C         10.68120        2.25420       -9.99920
C         11.71280        1.32430      -10.05660
S         13.34080        1.63900      -10.65430
C         13.47520        3.46030      -10.63630
C         13.50070        4.02260       -9.22770
C         11.42940        0.02400       -9.63510
C         10.19040       -0.34460       -9.16290
F         12.40440       -0.90540       -9.68350
C          7.14740       -0.86090       -9.08240
S          7.70620       -1.93960      -10.33620
C          7.70020        2.10870       -6.87640
C          6.81420        2.63190       -5.97870
S          5.30540        1.73030       -5.94970
C          7.03390        3.70020       -5.06370
S          8.64620        4.03330       -4.51370
C          8.09710        5.16560       -3.31780
C          6.72570        5.37200       -3.44450
C          6.11270        4.51900       -4.41210
C          4.71560        4.59740       -4.60380
C          3.95770        5.45720       -3.86740
C          2.48250        5.57440       -4.07000
C          4.58020        6.30040       -2.88970
O          3.71850        7.09200       -2.19470
C          4.23150        7.87860       -1.14980
C          5.93430        6.27750       -2.70280
C          9.01990        5.68860       -2.34660
C          8.84100        5.71950       -1.00740
C          7.77750        5.12490       -0.25390
C          7.51710        5.29440        1.08100
C          6.39160        4.56830        1.55190
C          5.80250        4.55830        2.83400
C          6.43540        5.23600        3.96990
C          5.70290        6.05280        4.82590
C          6.29840        6.68080        5.90280
C          7.65360        6.51570        6.16330
S          8.53920        7.23230        7.50760
C          7.40800        8.50500        8.16650
C          7.27610        9.69630        7.23660
C          8.37440        5.68460        5.30320
F          9.68910        5.48840        5.53360
C          7.79410        5.05460        4.22670
C          4.61300        3.85570        2.96760
C          3.96900        3.21190        1.88150
C          4.54580        3.22960        0.60290
C          3.83120        2.76370       -0.58800
C          4.43220        1.97180       -1.56340
C          3.75060        1.64120       -2.71500
C          2.45950        2.10430       -2.95520
S          1.71500        1.67940       -4.50060
C         -0.04650        1.39630       -4.07890
C         -0.22060        0.42980       -2.92670
C          1.87870        2.90950       -1.98050
C          2.53520        3.22200       -0.80980
F          0.64380        3.43460       -2.15410
C          5.77900        3.84690        0.49760
S          6.67440        3.97320       -0.97840
C          2.79500        2.54160        2.27000
C          2.50770        2.63110        3.60800
S          3.70680        3.60730        4.44670
C          1.40590        1.99100        4.22210
S          0.41870        0.98370        3.20550
C         -0.63300        0.52030        4.50950
C         -0.22750        1.15160        5.69920
C          0.92570        1.97670        5.53680
C          1.44140        2.66070        6.65600
C          0.85140        2.53870        7.88050
C          1.37680        3.25080        9.08480
C         -0.30300        1.71010        8.03430
O         -0.80100        1.66850        9.29940
C         -1.93560        0.87760        9.55110
C         -0.82960        1.03140        6.96410
C         -1.68560       -0.38030        4.28430
C         -1.91240       -0.96350        3.06850
C         -2.91730       -1.88540        2.75550
S         -4.10740       -2.41230        3.90710
C         -4.87540       -3.47700        2.76480
C         -4.22130       -3.41780        1.52050
C         -3.11730       -2.52320        1.51450
C         -2.35640       -2.37820        0.33970
C         -2.67030       -3.08240       -0.78860
C         -1.87110       -2.96190       -2.04520
C         -3.79150       -3.96650       -0.77940
O         -4.01660       -4.60390       -1.96130
C         -5.09160       -5.50470       -2.04880
C         -4.54890       -4.13170        0.35270
C         -5.98370       -4.27140        3.10270
C         -6.60000       -4.30540        4.31400
C         -7.71010       -5.13890        4.60770
C         -8.34440       -6.05060        3.80610
C         -9.42240       -6.71820        4.43120
C        -10.25820       -7.70550        3.88320
C        -10.02170       -8.21550        2.52660
C         -8.76330       -8.69460        2.16410
C         -8.52250       -9.13720        0.88080
C         -9.52370       -9.12070       -0.08610
S         -9.12570       -9.71830       -1.70810
C         -9.78120       -8.39240       -2.78790
C         -9.10520       -7.06300       -2.51500
C        -10.78550       -8.68080        0.30000
F        -11.80850       -8.67540       -0.58120
C        -11.03860       -8.22490        1.57830
C        -11.28640       -8.17060        4.68880
C        -11.48460       -7.73000        6.01970
C        -10.63440       -6.76240        6.57610
C        -10.78210       -6.30810        7.96500
C        -10.81520       -7.21950        9.01880
C        -10.90250       -6.78030       10.32260
C        -10.97920       -5.42270       10.62660
S        -11.11830       -4.97640       12.33330
C        -10.04750       -3.49870       12.48790
C         -8.62690       -3.77530       12.03870
C        -10.98460       -4.52710        9.56190
C        -10.86760       -4.95080        8.25390
F        -11.10880       -3.19840        9.77530
C         -9.63280       -6.26480        5.75780
S         -8.44760       -5.06420        6.20180
C        -12.60850       -8.37020        6.62190
C        -13.20740       -9.25920        5.80440
S        -12.46230       -9.38200        4.24620
H          6.14200       -3.72820      -10.85110
H          4.43870       -2.86350       -9.07680
H          4.60630       -0.99020       -5.07610
H          2.44510       -1.71920       -4.16260
H         -0.02630       -3.82160       -7.06240
H         -1.39860       -2.69920       -7.23880
H         -2.20370       -4.96790       -6.57410
H         -1.17050       -4.91990       -5.13910
H         -2.52460       -3.79880       -5.28720
H          2.86790       -0.82540       -8.98380
H          8.64800        2.63760       -9.49690
H         10.83790        3.26480      -10.34050
H         12.66920        3.87830      -11.23810
H         14.42020        3.64860      -11.14590
H         14.33080        3.59610       -8.66950
H         12.57850        3.79340       -8.69810
H         13.62260        5.10360       -9.26240
H         10.03510       -1.36000       -8.83480
H          8.68590        2.51460       -7.01830
H          4.24260        3.97400       -5.34630
H          1.96650        5.54600       -3.11340
H          2.24650        6.53240       -4.53310
H          2.11700        4.77410       -4.70740
H          4.92760        8.63820       -1.52020
H          3.37070        8.37000       -0.69890
H          4.73570        7.26360       -0.39600
H          6.42680        6.91770       -1.98860
H          9.96720        6.03910       -2.73830
H          9.59990        6.20200       -0.40420
H          8.08920        5.96150        1.70160
H          4.65210        6.21450        4.64040
H          5.69020        7.29900        6.54270
H          7.87630        8.79800        9.10620
H          6.44880        8.03940        8.38880
H          6.86010        9.39940        6.27610
H          6.62300       10.44420        7.68260
H          8.25130       10.14510        7.06300
H          8.39550        4.40700        3.60820
H          5.42950        1.59150       -1.40620
H          4.21300        1.02040       -3.46480
H         -0.52010        2.35590       -3.88170
H         -0.45320        0.97780       -4.99900
H          0.27950       -0.51060       -3.14570
H          0.18600        0.83840       -2.00400
H         -1.28010        0.23360       -2.77760
H          2.04500        3.86560       -0.09540
H          2.19230        1.97140        1.58590
H          2.31280        3.28610        6.53920
H          2.25610        3.83710        8.83320
H          0.61040        3.90690        9.49470
H          1.63390        2.53130        9.86050
H         -2.79890        1.21600        8.96900
H         -1.74490       -0.17890        9.33650
H         -2.14830        0.99650       10.61240
H         -1.69920        0.40380        7.06690
H         -2.32790       -0.62640        5.11850
H         -1.24600       -0.70380        2.25600
H         -1.51080       -1.70770        0.32830
H         -2.47010       -2.50680       -2.83240
H         -1.57560       -3.94840       -2.39590
H         -0.98430       -2.35680       -1.88600
H         -5.06990       -5.89030       -3.06720
H         -6.05050       -5.00610       -1.87110
H         -4.97900       -6.33620       -1.34530
H         -5.39310       -4.80110        0.36720
H         -6.36010       -4.90460        2.31190
H         -6.23870       -3.67020        5.11120
H         -8.06140       -6.23830        2.78690
H         -7.97420       -8.72620        2.90020
H         -7.54700       -9.50450        0.60130
H         -9.56000       -8.74770       -3.79400
H        -10.85980       -8.33480       -2.66120
H         -8.02650       -7.15310       -2.63030
H         -9.47100       -6.31380       -3.21440
H         -9.31840       -6.72300       -1.50260
H        -12.02960       -7.87380        1.81980
H        -10.73680       -8.27610        8.81260
H        -10.90820       -7.48660       11.13830
H        -10.49680       -2.67600       11.93610
H        -10.08680       -3.27480       13.55400
H         -8.00810       -2.89950       12.22410
H         -8.21110       -4.61990       12.58430
H         -8.59190       -4.00040       10.97430
H        -10.87350       -4.21270        7.46720
H        -12.94680       -8.15290        7.61880
H        -14.06620       -9.86860        6.00770
