
  xtb     03042218243D
 energy: -377.376930716136 gnorm: 0.000378250226 xtb: 6.4.1 (unknown)
224244  0     0  0            999 V2000
    1.6655   -5.6703    8.8314 C   0  0  0  0  0  0  0  0  0  0  0  0
    1.5055   -4.4389    9.3549 C   0  0  0  0  0  0  0  0  0  0  0  0
    2.4295   -3.4863    8.8298 C   0  0  0  0  0  0  0  0  0  0  0  0
    2.5374   -2.1221    9.1373 C   0  0  0  0  0  0  0  0  0  0  0  0
    1.5632   -1.4324    9.9901 C   0  0  0  0  0  0  0  0  0  0  0  0
    1.9649   -0.5843   11.0188 C   0  0  0  0  0  0  0  0  0  0  0  0
    1.0358    0.1504   11.7255 C   0  0  0  0  0  0  0  0  0  0  0  0
   -0.3210    0.0662   11.4323 C   0  0  0  0  0  0  0  0  0  0  0  0
   -1.4519    1.0867   12.3390 S   0  0  0  0  0  0  0  0  0  0  0  0
   -2.4112    1.8635   10.9844 C   0  0  0  0  0  0  0  0  0  0  0  0
   -1.5182    2.6078   10.0123 C   0  0  0  0  0  0  0  0  0  0  0  0
   -0.7131   -0.8292   10.4437 C   0  0  0  0  0  0  0  0  0  0  0  0
   -2.0218   -0.9910   10.1403 F   0  0  0  0  0  0  0  0  0  0  0  0
    0.2040   -1.5644    9.7231 C   0  0  0  0  0  0  0  0  0  0  0  0
    3.5709   -1.4266    8.5283 C   0  0  0  0  0  0  0  0  0  0  0  0
    4.4457   -2.0110    7.5797 C   0  0  0  0  0  0  0  0  0  0  0  0
    4.3022   -3.3642    7.2310 C   0  0  0  0  0  0  0  0  0  0  0  0
    5.1306   -3.9729    6.1840 C   0  0  0  0  0  0  0  0  0  0  0  0
    5.8037   -5.1712    6.3951 C   0  0  0  0  0  0  0  0  0  0  0  0
    6.5710   -5.7476    5.4005 C   0  0  0  0  0  0  0  0  0  0  0  0
    6.6847   -5.1464    4.1523 C   0  0  0  0  0  0  0  0  0  0  0  0
    7.6199   -5.7691    2.7984 S   0  0  0  0  0  0  0  0  0  0  0  0
    8.2192   -7.3905    3.4033 C   0  0  0  0  0  0  0  0  0  0  0  0
    8.9718   -8.0779    2.2795 C   0  0  0  0  0  0  0  0  0  0  0  0
    6.0022   -3.9442    3.9536 C   0  0  0  0  0  0  0  0  0  0  0  0
    5.2401   -3.3582    4.9368 C   0  0  0  0  0  0  0  0  0  0  0  0
    6.0862   -3.3351    2.7518 F   0  0  0  0  0  0  0  0  0  0  0  0
    3.3152   -4.0769    7.8976 C   0  0  0  0  0  0  0  0  0  0  0  0
    2.9462   -5.7684    7.6690 S   0  0  0  0  0  0  0  0  0  0  0  0
    5.3929   -1.0784    7.0917 C   0  0  0  0  0  0  0  0  0  0  0  0
    5.2559    0.1818    7.6069 C   0  0  0  0  0  0  0  0  0  0  0  0
    3.9274    0.2663    8.7520 S   0  0  0  0  0  0  0  0  0  0  0  0
    6.0318    1.3177    7.2505 C   0  0  0  0  0  0  0  0  0  0  0  0
    7.2210    1.1395    5.9946 S   0  0  0  0  0  0  0  0  0  0  0  0
    7.6061    2.8239    6.0003 C   0  0  0  0  0  0  0  0  0  0  0  0
    6.9005    3.4856    6.9911 C   0  0  0  0  0  0  0  0  0  0  0  0
    5.9888    2.6380    7.6977 C   0  0  0  0  0  0  0  0  0  0  0  0
    5.1852    3.2132    8.7066 C   0  0  0  0  0  0  0  0  0  0  0  0
    5.2726    4.5406    9.0003 C   0  0  0  0  0  0  0  0  0  0  0  0
    4.4324    5.1675   10.0654 C   0  0  0  0  0  0  0  0  0  0  0  0
    6.1874    5.3799    8.2814 C   0  0  0  0  0  0  0  0  0  0  0  0
    6.1788    6.6834    8.6745 O   0  0  0  0  0  0  0  0  0  0  0  0
    7.0450    7.5813    8.0282 C   0  0  0  0  0  0  0  0  0  0  0  0
    6.9796    4.8650    7.2954 C   0  0  0  0  0  0  0  0  0  0  0  0
    8.5382    3.3976    5.0432 C   0  0  0  0  0  0  0  0  0  0  0  0
    8.2852    3.5523    3.7349 C   0  0  0  0  0  0  0  0  0  0  0  0
    7.0538    3.2639    3.0566 C   0  0  0  0  0  0  0  0  0  0  0  0
    6.8340    3.3798    1.7130 C   0  0  0  0  0  0  0  0  0  0  0  0
    5.5126    3.0545    1.3113 C   0  0  0  0  0  0  0  0  0  0  0  0
    4.9576    3.0470    0.0189 C   0  0  0  0  0  0  0  0  0  0  0  0
    5.7258    3.5040   -1.1452 C   0  0  0  0  0  0  0  0  0  0  0  0
    5.8092    2.7394   -2.3073 C   0  0  0  0  0  0  0  0  0  0  0  0
    6.5378    3.1845   -3.3892 C   0  0  0  0  0  0  0  0  0  0  0  0
    7.1985    4.4114   -3.3663 C   0  0  0  0  0  0  0  0  0  0  0  0
    8.0555    4.8971   -4.8354 S   0  0  0  0  0  0  0  0  0  0  0  0
    9.5836    5.6962   -4.2182 C   0  0  0  0  0  0  0  0  0  0  0  0
   10.3981    4.7639   -3.3441 C   0  0  0  0  0  0  0  0  0  0  0  0
    7.0808    5.1779   -2.2109 C   0  0  0  0  0  0  0  0  0  0  0  0
    7.6565    6.3992   -2.1243 F   0  0  0  0  0  0  0  0  0  0  0  0
    6.3754    4.7342   -1.1112 C   0  0  0  0  0  0  0  0  0  0  0  0
    3.6486    2.6017   -0.0945 C   0  0  0  0  0  0  0  0  0  0  0  0
    2.8673    2.1974    1.0177 C   0  0  0  0  0  0  0  0  0  0  0  0
    3.4123    2.2266    2.3082 C   0  0  0  0  0  0  0  0  0  0  0  0
    2.6465    1.7980    3.4866 C   0  0  0  0  0  0  0  0  0  0  0  0
    3.1338    0.7931    4.3204 C   0  0  0  0  0  0  0  0  0  0  0  0
    2.4021    0.3733    5.4100 C   0  0  0  0  0  0  0  0  0  0  0  0
    1.1823    0.9626    5.7342 C   0  0  0  0  0  0  0  0  0  0  0  0
    0.3700    0.3892    7.1968 S   0  0  0  0  0  0  0  0  0  0  0  0
   -1.4039    0.3382    6.7340 C   0  0  0  0  0  0  0  0  0  0  0  0
   -1.6537   -0.5247    5.5140 C   0  0  0  0  0  0  0  0  0  0  0  0
    0.7270    1.9899    4.9145 C   0  0  0  0  0  0  0  0  0  0  0  0
    1.4258    2.3883    3.7925 C   0  0  0  0  0  0  0  0  0  0  0  0
   -0.4262    2.6378    5.1918 F   0  0  0  0  0  0  0  0  0  0  0  0
    4.7242    2.6546    2.4173 C   0  0  0  0  0  0  0  0  0  0  0  0
    5.6058    2.7682    3.9094 S   0  0  0  0  0  0  0  0  0  0  0  0
    1.5769    1.7602    0.6324 C   0  0  0  0  0  0  0  0  0  0  0  0
    1.3522    1.8360   -0.7093 C   0  0  0  0  0  0  0  0  0  0  0  0
    2.7363    2.4723   -1.5793 S   0  0  0  0  0  0  0  0  0  0  0  0
    0.1799    1.4212   -1.4044 C   0  0  0  0  0  0  0  0  0  0  0  0
   -0.0443    1.3886   -2.7482 C   0  0  0  0  0  0  0  0  0  0  0  0
   -1.3089    0.8531   -3.1003 C   0  0  0  0  0  0  0  0  0  0  0  0
   -1.8423    0.6675   -4.3881 C   0  0  0  0  0  0  0  0  0  0  0  0
   -1.1296    1.1232   -5.5873 C   0  0  0  0  0  0  0  0  0  0  0  0
   -0.6422    2.4262   -5.6802 C   0  0  0  0  0  0  0  0  0  0  0  0
   -0.0131    2.8598   -6.8272 C   0  0  0  0  0  0  0  0  0  0  0  0
    0.1702    2.0128   -7.9185 C   0  0  0  0  0  0  0  0  0  0  0  0
    1.0181    2.6700   -9.3248 S   0  0  0  0  0  0  0  0  0  0  0  0
    0.1081    1.9728  -10.7530 C   0  0  0  0  0  0  0  0  0  0  0  0
   -1.3663    2.3209  -10.7131 C   0  0  0  0  0  0  0  0  0  0  0  0
   -0.2885    0.7048   -7.7971 C   0  0  0  0  0  0  0  0  0  0  0  0
   -0.1015   -0.1903   -8.7924 F   0  0  0  0  0  0  0  0  0  0  0  0
   -0.9435    0.2646   -6.6654 C   0  0  0  0  0  0  0  0  0  0  0  0
   -3.0770    0.0443   -4.4671 C   0  0  0  0  0  0  0  0  0  0  0  0
   -3.8157   -0.3572   -3.3262 C   0  0  0  0  0  0  0  0  0  0  0  0
   -3.3060   -0.1269   -2.0361 C   0  0  0  0  0  0  0  0  0  0  0  0
   -4.0965   -0.4652   -0.8477 C   0  0  0  0  0  0  0  0  0  0  0  0
   -3.5575   -1.1866    0.2157 C   0  0  0  0  0  0  0  0  0  0  0  0
   -4.3349   -1.5179    1.3047 C   0  0  0  0  0  0  0  0  0  0  0  0
   -5.6736   -1.1384    1.3875 C   0  0  0  0  0  0  0  0  0  0  0  0
   -6.5586   -1.6044    2.8461 S   0  0  0  0  0  0  0  0  0  0  0  0
   -8.2395   -2.0123    2.2438 C   0  0  0  0  0  0  0  0  0  0  0  0
   -8.2209   -3.0892    1.1777 C   0  0  0  0  0  0  0  0  0  0  0  0
   -6.1867   -0.3829    0.3379 C   0  0  0  0  0  0  0  0  0  0  0  0
   -5.4258   -0.0596   -0.7659 C   0  0  0  0  0  0  0  0  0  0  0  0
   -7.4645    0.0640    0.3574 F   0  0  0  0  0  0  0  0  0  0  0  0
   -2.0478    0.4487   -1.9602 C   0  0  0  0  0  0  0  0  0  0  0  0
   -1.1812    0.7982   -0.4884 S   0  0  0  0  0  0  0  0  0  0  0  0
   -5.0254   -1.0019   -3.6725 C   0  0  0  0  0  0  0  0  0  0  0  0
   -5.2613   -1.0575   -5.0193 C   0  0  0  0  0  0  0  0  0  0  0  0
   -3.9485   -0.3224   -5.9333 S   0  0  0  0  0  0  0  0  0  0  0  0
   -6.3531   -1.6410   -5.7096 C   0  0  0  0  0  0  0  0  0  0  0  0
   -6.1605   -2.0938   -7.3723 S   0  0  0  0  0  0  0  0  0  0  0  0
   -7.7546   -2.7747   -7.4705 C   0  0  0  0  0  0  0  0  0  0  0  0
   -8.4225   -2.6254   -6.2425 C   0  0  0  0  0  0  0  0  0  0  0  0
   -7.6346   -1.9722   -5.2494 C   0  0  0  0  0  0  0  0  0  0  0  0
   -8.2167   -1.7029   -3.9927 C   0  0  0  0  0  0  0  0  0  0  0  0
   -9.4864   -2.1104   -3.7042 C   0  0  0  0  0  0  0  0  0  0  0  0
  -10.1185   -1.8426   -2.3761 C   0  0  0  0  0  0  0  0  0  0  0  0
  -10.2482   -2.8105   -4.6900 C   0  0  0  0  0  0  0  0  0  0  0  0
  -11.4930   -3.1817   -4.2820 O   0  0  0  0  0  0  0  0  0  0  0  0
  -12.3221   -3.8633   -5.1894 C   0  0  0  0  0  0  0  0  0  0  0  0
   -9.7306   -3.0463   -5.9374 C   0  0  0  0  0  0  0  0  0  0  0  0
   -8.2253   -3.3810   -8.6482 C   0  0  0  0  0  0  0  0  0  0  0  0
   -7.4998   -3.4981   -9.7960 C   0  0  0  0  0  0  0  0  0  0  0  0
   -7.9495   -4.1065  -10.9802 C   0  0  0  0  0  0  0  0  0  0  0  0
   -9.5348   -4.7974  -11.1246 S   0  0  0  0  0  0  0  0  0  0  0  0
   -9.2642   -5.3354  -12.7525 C   0  0  0  0  0  0  0  0  0  0  0  0
   -7.9939   -4.9505  -13.1902 C   0  0  0  0  0  0  0  0  0  0  0  0
   -7.2462   -4.2652  -12.1848 C   0  0  0  0  0  0  0  0  0  0  0  0
   -5.9397   -3.8253  -12.4723 C   0  0  0  0  0  0  0  0  0  0  0  0
   -5.3901   -4.0238  -13.7052 C   0  0  0  0  0  0  0  0  0  0  0  0
   -4.0054   -3.5720  -14.0402 C   0  0  0  0  0  0  0  0  0  0  0  0
   -6.1613   -4.6645  -14.7248 C   0  0  0  0  0  0  0  0  0  0  0  0
   -5.5246   -4.7701  -15.9252 O   0  0  0  0  0  0  0  0  0  0  0  0
   -6.2013   -5.3804  -16.9942 C   0  0  0  0  0  0  0  0  0  0  0  0
   -7.4302   -5.1142  -14.4748 C   0  0  0  0  0  0  0  0  0  0  0  0
  -10.3198   -6.0733  -13.3806 C   0  0  0  0  0  0  0  0  0  0  0  0
  -10.2155   -6.9311  -14.3972 C   0  0  0  0  0  0  0  0  0  0  0  0
    1.1106   -6.5605    9.0547 H   0  0  0  0  0  0  0  0  0  0  0  0
    0.7730   -4.1993   10.1043 H   0  0  0  0  0  0  0  0  0  0  0  0
    3.0122   -0.4974   11.2631 H   0  0  0  0  0  0  0  0  0  0  0  0
    1.3496    0.8204   12.5107 H   0  0  0  0  0  0  0  0  0  0  0  0
   -3.0026    1.0955   10.4901 H   0  0  0  0  0  0  0  0  0  0  0  0
   -3.0823    2.5454   11.5062 H   0  0  0  0  0  0  0  0  0  0  0  0
   -0.8368    1.9261    9.5056 H   0  0  0  0  0  0  0  0  0  0  0  0
   -2.1289    3.1060    9.2618 H   0  0  0  0  0  0  0  0  0  0  0  0
   -0.9274    3.3571   10.5346 H   0  0  0  0  0  0  0  0  0  0  0  0
   -0.1464   -2.2117    8.9346 H   0  0  0  0  0  0  0  0  0  0  0  0
    5.7442   -5.6542    7.3583 H   0  0  0  0  0  0  0  0  0  0  0  0
    7.0837   -6.6720    5.6093 H   0  0  0  0  0  0  0  0  0  0  0  0
    8.8733   -7.2138    4.2575 H   0  0  0  0  0  0  0  0  0  0  0  0
    7.3512   -7.9759    3.7070 H   0  0  0  0  0  0  0  0  0  0  0  0
    9.8207   -7.4750    1.9657 H   0  0  0  0  0  0  0  0  0  0  0  0
    8.3205   -8.2272    1.4216 H   0  0  0  0  0  0  0  0  0  0  0  0
    9.3355   -9.0465    2.6156 H   0  0  0  0  0  0  0  0  0  0  0  0
    4.7134   -2.4421    4.7193 H   0  0  0  0  0  0  0  0  0  0  0  0
    6.1652   -1.3319    6.3873 H   0  0  0  0  0  0  0  0  0  0  0  0
    4.4934    2.5947    9.2553 H   0  0  0  0  0  0  0  0  0  0  0  0
    5.0678    5.6122   10.8298 H   0  0  0  0  0  0  0  0  0  0  0  0
    3.7787    4.4310   10.5239 H   0  0  0  0  0  0  0  0  0  0  0  0
    3.8298    5.9688    9.6407 H   0  0  0  0  0  0  0  0  0  0  0  0
    6.8261    7.6507    6.9576 H   0  0  0  0  0  0  0  0  0  0  0  0
    8.0934    7.2964    8.1650 H   0  0  0  0  0  0  0  0  0  0  0  0
    6.8707    8.5493    8.4956 H   0  0  0  0  0  0  0  0  0  0  0  0
    7.6722    5.4706    6.7335 H   0  0  0  0  0  0  0  0  0  0  0  0
    9.4893    3.7354    5.4383 H   0  0  0  0  0  0  0  0  0  0  0  0
    9.0562    3.9690    3.0993 H   0  0  0  0  0  0  0  0  0  0  0  0
    7.6073    3.6630    1.0211 H   0  0  0  0  0  0  0  0  0  0  0  0
    5.3240    1.7770   -2.3511 H   0  0  0  0  0  0  0  0  0  0  0  0
    6.6105    2.5835   -4.2821 H   0  0  0  0  0  0  0  0  0  0  0  0
    9.3204    6.6159   -3.7006 H   0  0  0  0  0  0  0  0  0  0  0  0
   10.1204    5.9455   -5.1335 H   0  0  0  0  0  0  0  0  0  0  0  0
   11.3306    5.2480   -3.0608 H   0  0  0  0  0  0  0  0  0  0  0  0
    9.8539    4.5087   -2.4366 H   0  0  0  0  0  0  0  0  0  0  0  0
   10.6286    3.8442   -3.8778 H   0  0  0  0  0  0  0  0  0  0  0  0
    6.3059    5.3749   -0.2454 H   0  0  0  0  0  0  0  0  0  0  0  0
    4.0769    0.3204    4.0921 H   0  0  0  0  0  0  0  0  0  0  0  0
    2.7606   -0.4303    6.0334 H   0  0  0  0  0  0  0  0  0  0  0  0
   -1.7610    1.3558    6.5931 H   0  0  0  0  0  0  0  0  0  0  0  0
   -1.8810   -0.0861    7.6169 H   0  0  0  0  0  0  0  0  0  0  0  0
   -1.1891   -0.0932    4.6291 H   0  0  0  0  0  0  0  0  0  0  0  0
   -2.7243   -0.6015    5.3348 H   0  0  0  0  0  0  0  0  0  0  0  0
   -1.2506   -1.5245    5.6628 H   0  0  0  0  0  0  0  0  0  0  0  0
    1.0261    3.1858    3.1849 H   0  0  0  0  0  0  0  0  0  0  0  0
    0.8459    1.3813    1.3244 H   0  0  0  0  0  0  0  0  0  0  0  0
    0.6886    1.7134   -3.4654 H   0  0  0  0  0  0  0  0  0  0  0  0
   -0.7905    3.1114   -4.8596 H   0  0  0  0  0  0  0  0  0  0  0  0
    0.3479    3.8738   -6.9022 H   0  0  0  0  0  0  0  0  0  0  0  0
    0.5989    2.4358  -11.6092 H   0  0  0  0  0  0  0  0  0  0  0  0
    0.2727    0.8982  -10.7886 H   0  0  0  0  0  0  0  0  0  0  0  0
   -1.5026    3.3983  -10.6460 H   0  0  0  0  0  0  0  0  0  0  0  0
   -1.8514    1.9623  -11.6189 H   0  0  0  0  0  0  0  0  0  0  0  0
   -1.8531    1.8570   -9.8571 H   0  0  0  0  0  0  0  0  0  0  0  0
   -1.2755   -0.7610   -6.6266 H   0  0  0  0  0  0  0  0  0  0  0  0
   -2.5316   -1.5173    0.1739 H   0  0  0  0  0  0  0  0  0  0  0  0
   -3.9170   -2.0907    2.1180 H   0  0  0  0  0  0  0  0  0  0  0  0
   -8.7227   -1.1018    1.8964 H   0  0  0  0  0  0  0  0  0  0  0  0
   -8.7460   -2.3604    3.1441 H   0  0  0  0  0  0  0  0  0  0  0  0
   -7.7109   -3.9786    1.5418 H   0  0  0  0  0  0  0  0  0  0  0  0
   -9.2415   -3.3549    0.9100 H   0  0  0  0  0  0  0  0  0  0  0  0
   -7.7110   -2.7428    0.2808 H   0  0  0  0  0  0  0  0  0  0  0  0
   -5.8704    0.5419   -1.5441 H   0  0  0  0  0  0  0  0  0  0  0  0
   -5.6570   -1.4749   -2.9454 H   0  0  0  0  0  0  0  0  0  0  0  0
   -7.6642   -1.1440   -3.2557 H   0  0  0  0  0  0  0  0  0  0  0  0
  -10.3731   -2.7835   -1.8901 H   0  0  0  0  0  0  0  0  0  0  0  0
  -11.0453   -1.2869   -2.5082 H   0  0  0  0  0  0  0  0  0  0  0  0
   -9.4508   -1.2758   -1.7331 H   0  0  0  0  0  0  0  0  0  0  0  0
  -12.5417   -3.2520   -6.0708 H   0  0  0  0  0  0  0  0  0  0  0  0
  -11.8762   -4.8113   -5.5076 H   0  0  0  0  0  0  0  0  0  0  0  0
  -13.2472   -4.0633   -4.6509 H   0  0  0  0  0  0  0  0  0  0  0  0
  -10.3056   -3.5467   -6.6987 H   0  0  0  0  0  0  0  0  0  0  0  0
   -9.2301   -3.7813   -8.6261 H   0  0  0  0  0  0  0  0  0  0  0  0
   -6.4941   -3.0992   -9.8123 H   0  0  0  0  0  0  0  0  0  0  0  0
   -5.3685   -3.3203  -11.7083 H   0  0  0  0  0  0  0  0  0  0  0  0
   -3.5340   -3.0997  -13.1827 H   0  0  0  0  0  0  0  0  0  0  0  0
   -3.4029   -4.4213  -14.3586 H   0  0  0  0  0  0  0  0  0  0  0  0
   -4.0325   -2.8668  -14.8696 H   0  0  0  0  0  0  0  0  0  0  0  0
   -5.5096   -5.3547  -17.8349 H   0  0  0  0  0  0  0  0  0  0  0  0
   -6.4554   -6.4213  -16.7674 H   0  0  0  0  0  0  0  0  0  0  0  0
   -7.1128   -4.8344  -17.2591 H   0  0  0  0  0  0  0  0  0  0  0  0
   -8.0254   -5.5653  -15.2489 H   0  0  0  0  0  0  0  0  0  0  0  0
  -11.2918   -5.9282  -12.9230 H   0  0  0  0  0  0  0  0  0  0  0  0
   -9.2757   -7.1844  -14.8532 H   0  0  0  0  0  0  0  0  0  0  0  0
  -11.0843   -7.4355  -14.7824 H   0  0  0  0  0  0  0  0  0  0  0  0
  1  2  2  0  0  0  0
  2  3  1  0  0  0  0
  3  4  2  0  0  0  0
  4  5  1  0  0  0  0
  5  6  2  0  0  0  0
  6  7  1  0  0  0  0
  7  8  2  0  0  0  0
  8  9  1  0  0  0  0
  9 10  1  0  0  0  0
 10 11  1  0  0  0  0
  8 12  1  0  0  0  0
 12 13  1  0  0  0  0
 12 14  2  0  0  0  0
  4 15  1  0  0  0  0
 15 16  2  0  0  0  0
 16 17  1  0  0  0  0
 17 18  1  0  0  0  0
 18 19  2  0  0  0  0
 19 20  1  0  0  0  0
 20 21  2  0  0  0  0
 21 22  1  0  0  0  0
 22 23  1  0  0  0  0
 23 24  1  0  0  0  0
 21 25  1  0  0  0  0
 25 26  2  0  0  0  0
 25 27  1  0  0  0  0
 17 28  2  0  0  0  0
 28 29  1  0  0  0  0
 16 30  1  0  0  0  0
 30 31  2  0  0  0  0
 31 32  1  0  0  0  0
 31 33  1  0  0  0  0
 33 34  1  0  0  0  0
 34 35  1  0  0  0  0
 35 36  2  0  0  0  0
 36 37  1  0  0  0  0
 37 38  1  0  0  0  0
 38 39  2  0  0  0  0
 39 40  1  0  0  0  0
 39 41  1  0  0  0  0
 41 42  1  0  0  0  0
 42 43  1  0  0  0  0
 41 44  2  0  0  0  0
 35 45  1  0  0  0  0
 45 46  2  0  0  0  0
 46 47  1  0  0  0  0
 47 48  2  0  0  0  0
 48 49  1  0  0  0  0
 49 50  2  0  0  0  0
 50 51  1  0  0  0  0
 51 52  2  0  0  0  0
 52 53  1  0  0  0  0
 53 54  2  0  0  0  0
 54 55  1  0  0  0  0
 55 56  1  0  0  0  0
 56 57  1  0  0  0  0
 54 58  1  0  0  0  0
 58 59  1  0  0  0  0
 58 60  2  0  0  0  0
 50 61  1  0  0  0  0
 61 62  2  0  0  0  0
 62 63  1  0  0  0  0
 63 64  1  0  0  0  0
 64 65  2  0  0  0  0
 65 66  1  0  0  0  0
 66 67  2  0  0  0  0
 67 68  1  0  0  0  0
 68 69  1  0  0  0  0
 69 70  1  0  0  0  0
 67 71  1  0  0  0  0
 71 72  2  0  0  0  0
 71 73  1  0  0  0  0
 63 74  2  0  0  0  0
 74 75  1  0  0  0  0
 62 76  1  0  0  0  0
 76 77  2  0  0  0  0
 77 78  1  0  0  0  0
 77 79  1  0  0  0  0
 79 80  2  0  0  0  0
 80 81  1  0  0  0  0
 81 82  2  0  0  0  0
 82 83  1  0  0  0  0
 83 84  2  0  0  0  0
 84 85  1  0  0  0  0
 85 86  2  0  0  0  0
 86 87  1  0  0  0  0
 87 88  1  0  0  0  0
 88 89  1  0  0  0  0
 86 90  1  0  0  0  0
 90 91  1  0  0  0  0
 90 92  2  0  0  0  0
 82 93  1  0  0  0  0
 93 94  2  0  0  0  0
 94 95  1  0  0  0  0
 95 96  1  0  0  0  0
 96 97  2  0  0  0  0
 97 98  1  0  0  0  0
 98 99  2  0  0  0  0
 99100  1  0  0  0  0
100101  1  0  0  0  0
101102  1  0  0  0  0
 99103  1  0  0  0  0
103104  2  0  0  0  0
103105  1  0  0  0  0
 95106  2  0  0  0  0
106107  1  0  0  0  0
 94108  1  0  0  0  0
108109  2  0  0  0  0
109110  1  0  0  0  0
109111  1  0  0  0  0
111112  1  0  0  0  0
112113  1  0  0  0  0
113114  2  0  0  0  0
114115  1  0  0  0  0
115116  1  0  0  0  0
116117  2  0  0  0  0
117118  1  0  0  0  0
117119  1  0  0  0  0
119120  1  0  0  0  0
120121  1  0  0  0  0
119122  2  0  0  0  0
113123  1  0  0  0  0
123124  2  0  0  0  0
124125  1  0  0  0  0
125126  1  0  0  0  0
126127  1  0  0  0  0
127128  2  0  0  0  0
128129  1  0  0  0  0
129130  1  0  0  0  0
130131  2  0  0  0  0
131132  1  0  0  0  0
131133  1  0  0  0  0
133134  1  0  0  0  0
134135  1  0  0  0  0
133136  2  0  0  0  0
127137  1  0  0  0  0
137138  2  0  0  0  0
 29  1  1  0  0  0  0
 37 33  2  0  0  0  0
 75 47  1  0  0  0  0
107 79  1  0  0  0  0
115111  2  0  0  0  0
129125  2  0  0  0  0
 28  3  1  0  0  0  0
 44 36  1  0  0  0  0
 74 49  1  0  0  0  0
106 81  1  0  0  0  0
122114  1  0  0  0  0
136128  1  0  0  0  0
 14  5  1  0  0  0  0
 32 15  1  0  0  0  0
 60 51  1  0  0  0  0
 78 61  1  0  0  0  0
 92 83  1  0  0  0  0
110 93  1  0  0  0  0
 26 18  1  0  0  0  0
 72 64  1  0  0  0  0
104 96  1  0  0  0  0
  1139  1  0  0  0  0
  2140  1  0  0  0  0
  6141  1  0  0  0  0
  7142  1  0  0  0  0
 10143  1  0  0  0  0
 10144  1  0  0  0  0
 11145  1  0  0  0  0
 11146  1  0  0  0  0
 11147  1  0  0  0  0
 14148  1  0  0  0  0
 19149  1  0  0  0  0
 20150  1  0  0  0  0
 23151  1  0  0  0  0
 23152  1  0  0  0  0
 24153  1  0  0  0  0
 24154  1  0  0  0  0
 24155  1  0  0  0  0
 26156  1  0  0  0  0
 30157  1  0  0  0  0
 38158  1  0  0  0  0
 40159  1  0  0  0  0
 40160  1  0  0  0  0
 40161  1  0  0  0  0
 43162  1  0  0  0  0
 43163  1  0  0  0  0
 43164  1  0  0  0  0
 44165  1  0  0  0  0
 45166  1  0  0  0  0
 46167  1  0  0  0  0
 48168  1  0  0  0  0
 52169  1  0  0  0  0
 53170  1  0  0  0  0
 56171  1  0  0  0  0
 56172  1  0  0  0  0
 57173  1  0  0  0  0
 57174  1  0  0  0  0
 57175  1  0  0  0  0
 60176  1  0  0  0  0
 65177  1  0  0  0  0
 66178  1  0  0  0  0
 69179  1  0  0  0  0
 69180  1  0  0  0  0
 70181  1  0  0  0  0
 70182  1  0  0  0  0
 70183  1  0  0  0  0
 72184  1  0  0  0  0
 76185  1  0  0  0  0
 80186  1  0  0  0  0
 84187  1  0  0  0  0
 85188  1  0  0  0  0
 88189  1  0  0  0  0
 88190  1  0  0  0  0
 89191  1  0  0  0  0
 89192  1  0  0  0  0
 89193  1  0  0  0  0
 92194  1  0  0  0  0
 97195  1  0  0  0  0
 98196  1  0  0  0  0
101197  1  0  0  0  0
101198  1  0  0  0  0
102199  1  0  0  0  0
102200  1  0  0  0  0
102201  1  0  0  0  0
104202  1  0  0  0  0
108203  1  0  0  0  0
116204  1  0  0  0  0
118205  1  0  0  0  0
118206  1  0  0  0  0
118207  1  0  0  0  0
121208  1  0  0  0  0
121209  1  0  0  0  0
121210  1  0  0  0  0
122211  1  0  0  0  0
123212  1  0  0  0  0
124213  1  0  0  0  0
130214  1  0  0  0  0
132215  1  0  0  0  0
132216  1  0  0  0  0
132217  1  0  0  0  0
135218  1  0  0  0  0
135219  1  0  0  0  0
135220  1  0  0  0  0
136221  1  0  0  0  0
137222  1  0  0  0  0
138223  1  0  0  0  0
138224  1  0  0  0  0
M  END
