250

C          5.58710       -4.49470        6.33550
C          5.29400       -3.26800        5.85830
C          4.03570       -3.21330        5.18900
C          3.40590       -2.11220        4.58470
C          4.01920       -0.77810        4.54810
C          4.04980       -0.04780        3.36020
C          4.64450        1.19030        3.30450
C          5.22840        1.77630        4.42980
S          5.96790        3.34670        4.14010
C          6.68640        3.90300        5.73420
C          7.33790        5.25430        5.51650
C          5.15140        1.06020        5.62120
F          5.62920        1.56020        6.78250
C          4.56850       -0.19220        5.68310
C          2.16630       -2.35470        4.00690
C          1.53050       -3.62010        4.02110
C          2.17600       -4.72260        4.59410
C          1.56840       -6.06060        4.57540
C          2.24440       -7.13410        4.00010
C          1.67550       -8.39150        3.97850
C          0.42370       -8.61550        4.53810
S         -0.28270      -10.24500        4.60990
C         -0.44000      -10.62210        2.82600
C         -1.67480       -9.96660        2.24020
C         -0.23750       -7.53820        5.11730
C          0.31140       -6.27100        5.13150
F         -1.45010       -7.71290        5.67490
C          3.41600       -4.48710        5.16650
S          4.37580       -5.68120        5.99740
C          0.27450       -3.59910        3.35800
C         -0.05740       -2.37810        2.85870
S          1.17180       -1.16780        3.19950
C         -1.15810       -2.01810        2.02580
C         -1.51470       -0.75860        1.64890
C         -2.50440       -0.71530        0.63670
C         -3.02030        0.41190       -0.03110
C         -2.71460        1.79790        0.34050
C         -1.44170        2.24850        0.67810
C         -1.21750        3.56290        1.04440
C         -2.24870        4.49300        1.04900
S         -2.09860        6.20250        1.43870
C         -0.41130        6.39130        2.10830
C         -0.26540        5.82570        3.50720
C         -3.51510        4.03880        0.67860
F         -4.54480        4.91140        0.65530
C         -3.75820        2.72700        0.35070
C         -3.86130        0.14760       -1.10300
C         -4.30860       -1.14880       -1.45000
C         -3.90420       -2.25990       -0.68770
C         -4.48790       -3.57690       -0.96070
C         -5.87660       -3.70100       -1.04180
C         -6.46320       -4.92250       -1.28660
C         -5.69130       -6.06440       -1.49430
S         -6.54250       -7.57520       -1.84140
C         -5.57060       -8.85240       -0.95790
C         -5.40300       -8.53540        0.51410
C         -4.30970       -5.91440       -1.45910
C         -3.70600       -4.70770       -1.16750
F         -3.50360       -6.96630       -1.73670
C         -2.94490       -2.01900        0.28290
S         -2.11210       -3.24310        1.20980
C         -5.02060       -1.16430       -2.67430
C         -5.08210        0.05710       -3.28640
S         -4.37810        1.31830       -2.28210
C         -5.45580        0.43610       -4.60010
S         -4.99420        2.03220       -5.07410
C         -5.43360        1.78100       -6.72510
C         -5.97730        0.49970       -6.88860
C         -6.00620       -0.26320       -5.67930
C         -6.55060       -1.56300       -5.70900
C         -7.01540       -2.10320       -6.87180
C         -7.58820       -3.48270       -6.93140
C         -6.96460       -1.34030       -8.08050
O         -7.45750       -1.98510       -9.17300
C         -7.45110       -1.31500      -10.40820
C         -6.46640       -0.06440       -8.08390
C         -5.07070        2.72610       -7.72700
C         -4.60770        3.97380       -7.49210
C         -4.68970        4.61890       -6.20430
S         -3.30380        5.23630       -5.37240
C         -4.23850        5.75620       -4.00710
C         -5.59380        5.49650       -4.22140
C         -5.84660        4.83520       -5.45810
C         -7.17410        4.48990       -5.79740
C         -8.19970        4.76230       -4.94400
C         -9.61550        4.40500       -5.26510
C         -7.93270        5.40410       -3.68980
O         -9.03560        5.60870       -2.91990
C         -8.87140        6.22140       -1.66430
C         -6.65960        5.76410       -3.33770
C         -3.70630        6.49040       -2.90570
C         -2.53400        6.35610       -2.25000
C         -1.58340        5.29250       -2.27290
C         -0.39860        5.31950       -1.58970
C          0.30140        4.09250       -1.58970
C          1.47500        3.76960       -0.89510
C          2.18100        4.70010       -0.00310
C          2.45620        4.30550        1.30890
C          3.14910        5.13140        2.16670
C          3.58710        6.38290        1.75100
S          4.47590        7.39050        2.90820
C          6.00360        7.74380        1.96380
C          6.69630        6.46660        1.53220
C          3.28110        6.78140        0.45380
F          3.66270        7.99700        0.00760
C          2.59760        5.95910       -0.42170
C          1.91460        2.46070       -1.00010
C          1.24470        1.44310       -1.72160
C          0.04120        1.76110       -2.38840
C         -0.73360        0.74890       -3.11380
C         -1.27990        1.02240       -4.36990
C         -2.00770        0.07120       -5.04470
C         -2.21890       -1.20870       -4.52260
S         -3.17930       -2.26350       -5.56000
C         -3.44660       -3.85510       -4.69650
C         -2.29530       -4.82460       -4.87670
C         -1.65680       -1.47130       -3.27960
C         -0.94650       -0.51640       -2.57820
F         -1.76180       -2.69050       -2.69340
C         -0.38670        3.08290       -2.31330
S         -1.87670        3.71270       -2.97340
C          1.93820        0.20140       -1.62380
C          3.07040        0.26400       -0.86580
S          3.37020        1.87870       -0.25720
C          3.95940       -0.73610       -0.35230
C          3.76100       -2.06210       -0.10890
C          4.75260       -2.63950        0.73660
C          4.80080       -3.93020        1.29220
C          3.76880       -4.93810        1.03350
C          2.41640       -4.61000        1.09050
C          1.43950       -5.56290        0.89270
C          1.78000       -6.88370        0.62910
S          0.59900       -8.16470        0.37520
C         -0.74410       -7.28040       -0.48770
C         -0.26540       -6.66030       -1.78490
C          3.13460       -7.20580        0.58430
F          3.50090       -8.47920        0.34030
C          4.11900       -6.26170        0.77150
C          5.86010       -4.19970        2.15400
C          6.81770       -3.23340        2.54110
C          6.75410       -1.93820        2.01220
C          7.60870       -0.84430        2.48630
C          8.25730        0.01720        1.60860
C          8.98180        1.10020        2.06980
C          9.07770        1.36550        3.43020
S          9.95170        2.70320        4.16920
C         10.75090        3.55500        2.76750
C          9.80920        4.50350        2.04910
C          8.42800        0.48700        4.29950
C          7.71160       -0.59790        3.85400
F          8.49610        0.71500        5.62830
C          5.75150       -1.69690        1.08650
S          5.46850       -0.15800        0.33180
C          7.76870       -3.76400        3.46220
C          7.53330       -5.05390        3.77260
S          6.15090       -5.71370        2.97250
H          6.46170       -4.79380        6.87960
H          5.94500       -2.42210        5.97760
H          3.61600       -0.46720        2.46740
H          4.67580        1.73910        2.37570
H          7.41740        3.16170        6.05220
H          5.87850        3.97130        6.46030
H          8.15800        5.16800        4.80750
H          6.61440        5.97340        5.13670
H          7.73450        5.62160        6.46000
H          4.52340       -0.68350        6.64310
H          3.22040       -6.97780        3.56570
H          2.21100       -9.21660        3.53430
H         -0.50760      -11.70790        2.77510
H          0.46560      -10.28940        2.32240
H         -1.60590       -8.88420        2.32550
H         -1.76560      -10.22610        1.18720
H         -2.56630      -10.29950        2.76700
H         -0.23290       -5.46440        5.59870
H         -0.35110       -4.46620        3.24570
H         -1.06180        0.11080        2.08800
H         -0.59690        1.57990        0.62300
H         -0.21920        3.86300        1.31350
H          0.29270        5.94470        1.40870
H         -0.26020        7.47090        2.11340
H          0.74710        6.00140        3.86550
H         -0.45850        4.75540        3.52000
H         -0.96520        6.30950        4.18430
H         -4.76910        2.43300        0.11810
H         -6.49580       -2.83160       -0.88090
H         -7.53720       -5.01750       -1.32360
H         -4.61400       -8.97890       -1.46060
H         -6.16660       -9.75390       -1.09990
H         -6.37200       -8.38740        0.98610
H         -4.80900       -7.63440        0.65590
H         -4.89470       -9.36020        1.00940
H         -2.63000       -4.64520       -1.15610
H         -5.38940       -2.06980       -3.11710
H         -6.61400       -2.13540       -4.79770
H         -8.60920       -3.44850       -7.30760
H         -7.58390       -3.94890       -5.94970
H         -7.01080       -4.09500       -7.62250
H         -8.06540       -0.40900      -10.37750
H         -7.87740       -2.01390      -11.12610
H         -6.43400       -1.05350      -10.71790
H         -6.44280        0.52870       -8.98340
H         -5.08460        2.35980       -8.74490
H         -4.15550        4.53460       -8.29950
H         -7.36390        3.99860       -6.74030
H         -9.68160        3.92490       -6.23780
H        -10.23680        5.29920       -5.26210
H        -10.01200        3.73320       -4.50550
H         -9.86660        6.26430       -1.22450
H         -8.47530        7.23720       -1.76290
H         -8.21130        5.63810       -1.01490
H         -6.44280        6.23740       -2.39450
H         -4.36260        7.27910       -2.55370
H         -2.30150        7.10870       -1.50630
H         -0.04990        6.20030       -1.08110
H          2.12550        3.34070        1.66260
H          3.37760        4.81010        3.17030
H          6.61600        8.31000        2.66530
H          5.75210        8.38040        1.11740
H          6.84590        5.80740        2.38450
H          6.10110        5.93270        0.79350
H          7.66240        6.70340        1.09100
H          2.41110        6.30110       -1.42790
H         -1.11760        1.98410       -4.82990
H         -2.42920        0.29570       -6.01280
H         -3.65260       -3.65370       -3.64860
H         -4.35220       -4.23930       -5.16830
H         -2.09130       -4.98020       -5.93370
H         -2.55330       -5.78210       -4.42790
H         -1.39310       -4.44940       -4.40070
H         -0.58360       -0.77520       -1.59560
H          1.62240       -0.69920       -2.11780
H          2.91110       -2.59970       -0.48680
H          2.12340       -3.59970        1.32360
H          0.40260       -5.27260        0.95450
H         -1.48190       -8.05790       -0.67830
H         -1.17920       -6.54470        0.18840
H         -1.10980       -6.24420       -2.32760
H          0.20720       -7.41490       -2.40970
H          0.45380       -5.86510       -1.59700
H          5.15030       -6.56350        0.68380
H          8.21060       -0.16680        0.54620
H          9.46830        1.73810        1.35080
H         11.57320        4.10280        3.22810
H         11.16790        2.79700        2.10580
H          8.91480        3.98820        1.70580
H         10.31190        4.94350        1.18960
H          9.50440        5.30530        2.71730
H          7.20940       -1.22990        4.56790
H          8.59550       -3.19590        3.84820
H          8.09650       -5.69170        4.42540
