102

C          7.29340       -1.37670        5.98790
C          6.35290       -1.58140        4.98800
N          5.67690       -0.60830        4.41510
C          5.89120        0.65230        4.80450
C          6.82060        0.95610        5.80630
C          7.52650       -0.07280        6.39970
C          5.09080        1.63830        4.10350
C          5.06110        2.95760        4.34410
C          4.24650        3.92340        3.64160
C          3.54140        3.64210        2.46130
N          2.77390        4.50050        1.83790
C          2.63840        5.73870        2.32060
C          3.33920        6.14410        3.46520
C          4.13330        5.23270        4.12540
C          1.80170        6.68690        1.60930
C          0.89400        6.43020        0.65430
C          0.42700        5.13520        0.19750
C          0.16800        4.92310       -1.16250
N         -0.25050        3.79050       -1.67290
C         -0.46760        2.75200       -0.85390
C         -0.28120        2.87280        0.53320
C          0.16050        4.06500        1.05720
C         -0.91150        1.51400       -1.43140
C         -1.14280        1.35340       -2.75570
C         -1.57020        0.15280       -3.36110
S         -1.78730       -1.30210       -2.43960
C         -2.30470       -2.21900       -3.81800
C         -2.30170       -1.40920       -4.96790
C         -1.88900       -0.07110       -4.70810
C         -1.85020        0.85630       -5.76800
C         -2.20750        0.48610       -7.03200
C         -2.17700        1.44570       -8.17830
C         -2.62920       -0.85600       -7.28380
O         -2.96780       -1.10510       -8.58080
C         -3.39060       -2.39870       -8.92840
C         -2.67710       -1.78150       -6.27350
C         -2.54920       -3.61290       -3.77800
C         -2.69700       -4.43120       -2.70230
C         -2.89490       -4.07210       -1.33940
S         -2.17830       -5.05750       -0.10060
C         -2.79530       -4.06680        1.18190
C         -3.58330       -3.03620        0.66000
C         -3.64810       -3.04580       -0.76510
C         -4.46580       -2.10040       -1.42070
C         -5.12030       -1.13520       -0.71460
C         -5.96950       -0.10390       -1.38480
C         -4.99400       -1.08970        0.70990
O         -5.67480       -0.06740        1.30030
C         -5.61050        0.06410        2.69720
C         -4.25720       -2.02810        1.38190
C         -2.59370       -4.37100        2.56250
C         -1.61140       -5.10670        3.11540
C         -0.41360       -5.59150        2.45030
C          0.08560       -6.87310        2.70300
N          1.17640       -7.36050        2.15750
C          1.88160       -6.60290        1.31410
C          1.48890       -5.29310        1.01750
C          0.34280       -4.78840        1.59080
C          3.06970       -7.24170        0.76430
C          3.90340       -6.72180       -0.12890
H          7.82450       -2.20660        6.42700
H          6.12860       -2.57780        4.62740
H          6.98970        1.97670        6.11090
H          8.25050        0.13700        7.17450
H          4.46720        1.20570        3.33460
H          5.66750        3.37550        5.13840
H          3.61000        2.67040        1.99080
H          3.24350        7.15710        3.82760
H          4.66650        5.52150        5.02160
H          1.98640        7.72200        1.87070
H          0.44910        7.27710        0.14280
H          0.33280        5.72110       -1.87770
H         -0.49710        2.03190        1.17570
H          0.27850        4.18770        2.12310
H         -1.06010        0.68350       -0.75320
H         -0.99390        2.20940       -3.39840
H         -1.53440        1.86970       -5.57390
H         -3.17110        1.54130       -8.61260
H         -1.51750        1.07290       -8.96030
H         -1.83210        2.42360       -7.85420
H         -2.61080       -3.14280       -8.73510
H         -4.30260       -2.68210       -8.39230
H         -3.59800       -2.36480       -9.99690
H         -3.00160       -2.79300       -6.45560
H         -2.53470       -4.09330       -4.74870
H         -2.62820       -5.49720       -2.88460
H         -4.57940       -2.15480       -2.49240
H         -6.98390       -0.13610       -0.99040
H         -5.57350        0.89010       -1.18180
H         -5.99500       -0.26430       -2.45920
H         -6.03610       -0.80850        3.20410
H         -6.20410        0.94450        2.93910
H         -4.58170        0.21620        3.04020
H         -4.17660       -2.01730        2.45670
H         -3.36690       -3.98870        3.21890
H         -1.69100       -5.36180        4.16470
H         -0.44030       -7.54170        3.37420
H          2.08210       -4.67630        0.36160
H          0.03620       -3.76970        1.39850
H          3.23660       -8.23780        1.15180
H          4.75980       -7.27110       -0.48110
H          3.77280       -5.73720       -0.54510
