198

C          8.20730       -1.20210        0.24690
C          7.92200       -0.52620        1.37770
C          6.69100       -0.93220        1.97410
C          6.08570       -0.45110        3.14440
C          6.70280        0.59800        3.96580
C          8.00220        0.47220        4.44580
C          8.57150        1.45810        5.22900
C          7.86400        2.61150        5.54750
S          8.47190        3.93340        6.54470
C         10.28390        3.71500        6.50850
C         10.86860        3.98200        5.13520
C          6.55780        2.71790        5.06730
F          5.83590        3.81910        5.36330
C          5.97570        1.74020        4.29320
C          4.86010       -0.99900        3.48240
C          4.22030       -2.01180        2.72690
C          4.83400       -2.50270        1.56540
C          4.25820       -3.59930        0.77510
C          4.02560       -4.84190        1.35960
C          3.62370       -5.91270        0.59000
C          3.40110       -5.77300       -0.77620
S          2.90270       -7.20210       -1.70210
C          4.04330       -7.16210       -3.13400
C          5.49070       -7.28060       -2.70240
C          3.55430       -4.50650       -1.32810
C          4.00410       -3.43710       -0.58180
F          3.27600       -4.28990       -2.63340
C          6.04920       -1.93600        1.21180
S          7.00350       -2.37130       -0.18490
C          2.95230       -2.34690        3.25370
C          2.61050       -1.64040        4.37710
S          3.90900       -0.56390        4.87470
C          1.34160       -1.64330        5.00880
S          0.05960       -2.53460        4.25050
C         -1.13350       -1.95240        5.36140
C         -0.53720       -1.11470        6.31690
C          0.86690       -0.94750        6.12600
C          1.58490       -0.13440        7.02720
C          0.95130        0.50880        8.04940
C          1.69160        1.38440        9.00840
C         -0.45780        0.34770        8.22370
O         -0.97930        1.03720        9.27590
C         -2.36110        0.94880        9.51430
C         -1.18050       -0.45580        7.38200
C         -2.52590       -2.14400        5.17820
C         -3.16910       -2.93770        4.28870
C         -2.62970       -3.98140        3.47410
S         -1.52630       -5.18030        4.06860
C         -1.45060       -5.99960        2.54280
C         -2.33010       -5.41830        1.63400
C         -2.98780       -4.26520        2.15730
C         -3.80070       -3.49250        1.29890
C         -3.99260       -3.86380        0.00180
C         -4.79160       -3.03690       -0.95390
C         -3.43570       -5.09660       -0.47370
O         -3.78910       -5.41740       -1.75080
C         -3.42520       -6.68220       -2.24330
C         -2.63270       -5.86070        0.32560
C         -0.44900       -7.00410        2.26710
C          0.35240       -6.91880        1.19190
C          0.34040       -5.74580        0.33770
C          0.09120       -5.65820       -0.99210
C         -0.15090       -4.33100       -1.44640
C         -0.64420       -3.91870       -2.69560
C         -0.70050       -4.85050       -3.82600
C         -1.83250       -4.96950       -4.63070
C         -1.84760       -5.84740       -5.69280
C         -0.74390       -6.64380       -5.99580
S         -0.90070       -7.75550       -7.36010
C          0.80250       -7.85720       -8.04290
C          0.72250       -8.25510       -9.50350
C          0.37000       -6.53240       -5.16990
F          1.46830       -7.29970       -5.37440
C          0.40370       -5.64800       -4.11260
C         -1.08570       -2.60590       -2.78210
C         -0.99500       -1.68270       -1.71130
C         -0.41460       -2.07290       -0.49610
C         -0.30140       -1.14230        0.64010
C         -1.43950       -0.70020        1.31030
C         -1.32960        0.16060        2.37770
C         -0.09180        0.64900        2.80820
S         -0.18720        1.73640        4.19720
C          1.49720        2.30090        4.62840
C          1.99320        3.42860        3.74570
C          1.02890        0.21230        2.11250
C          0.93660       -0.68380        1.06300
F          2.27270        0.65600        2.41680
C         -0.02740       -3.39430       -0.39330
S          0.48160       -4.15910        1.08220
C         -1.55050       -0.42480       -2.03610
C         -2.05820       -0.34690       -3.30640
S         -1.82850       -1.85980       -4.17430
C         -2.74290        0.76250       -3.86220
S         -3.13920        2.08720       -2.80750
C         -3.96080        2.96650       -4.06040
C         -3.90850        2.24990       -5.26710
C         -3.22240        1.00380       -5.15510
C         -3.09550        0.19240       -6.30200
C         -3.62380        0.58110       -7.49810
C         -3.50150       -0.26220       -8.72630
C         -4.31520        1.82760       -7.59840
O         -4.79790        2.10820       -8.84140
C         -5.48620        3.31720       -9.03670
C         -4.45170        2.64260       -6.50540
C         -4.57820        4.20860       -3.81810
C         -4.61480        4.81120       -2.59680
C         -5.21540        6.03470       -2.23530
S         -5.36730        6.34120       -0.52920
C         -6.19200        7.84230       -0.76320
C         -6.32530        8.11400       -2.12870
C         -5.76290        7.10230       -2.96740
C         -5.77960        7.30420       -4.36250
C         -6.36010        8.41070       -4.91190
C         -6.38610        8.64170       -6.38940
C         -6.96060        9.39210       -4.06540
O         -7.52160       10.44280       -4.72890
C         -8.12650       11.46400       -3.97740
C         -6.93140        9.25100       -2.70470
C         -6.64140        8.62980        0.34000
C         -6.47240        8.31530        1.62640
H          9.06270       -1.09210       -0.39090
H          8.54790        0.24720        1.78520
H          8.56800       -0.42060        4.22420
H          9.57340        1.31370        5.60030
H         10.64160        4.44830        7.23160
H         10.52600        2.71950        6.87750
H         10.61400        4.98700        4.80980
H         11.95210        3.89060        5.16900
H         10.48340        3.27660        4.40190
H          4.97000        1.88110        3.93010
H          4.20270       -4.97410        2.41590
H          3.48910       -6.88490        1.03750
H          3.86450       -6.25410       -3.70560
H          3.73260       -8.01850       -3.73160
H          6.13300       -7.31710       -3.58010
H          5.78440       -6.42540       -2.09510
H          5.64330       -8.18690       -2.11980
H          4.13730       -2.48170       -1.06550
H          2.28780       -3.05490        2.79130
H          2.65130       -0.02010        6.91270
H          1.59870        0.99280       10.02020
H          2.74340        1.44600        8.74280
H          1.26160        2.38480        9.00960
H         -2.55360        1.58190       10.37900
H         -2.66450       -0.07790        9.74370
H         -2.93960        1.31610        8.66020
H         -2.23940       -0.59900        7.51810
H         -3.14250       -1.48110        5.77190
H         -4.23200       -2.76910        4.15460
H         -4.26340       -2.59470        1.68170
H         -5.19380       -2.15420       -0.46350
H         -5.60950       -3.62330       -1.36900
H         -4.16200       -2.72460       -1.78640
H         -3.86460       -6.75290       -3.23690
H         -2.33950       -6.78710       -2.32550
H         -3.82050       -7.48400       -1.61100
H         -2.21430       -6.79540       -0.00890
H         -0.34880       -7.82590        2.96340
H          1.02280       -7.72460        0.92810
H         -0.01340       -6.52660       -1.61810
H         -2.71200       -4.38620       -4.40890
H         -2.72450       -5.93610       -6.31530
H          1.36170       -8.59190       -7.46510
H          1.25530       -6.87370       -7.92690
H          0.23130       -9.21980       -9.60900
H          0.15860       -7.51760      -10.07040
H          1.72510       -8.32670       -9.92000
H          1.30060       -5.58140       -3.52010
H         -2.40840       -1.05320        0.99390
H         -2.21050        0.48640        2.90930
H          1.38080        2.63670        5.65940
H          2.16100        1.44090        4.61930
H          2.13510        3.09150        2.72200
H          1.28230        4.25200        3.74450
H          2.94560        3.79240        4.12650
H          1.84510       -0.99870        0.57240
H         -1.58100        0.39860       -1.34450
H         -2.56880       -0.74590       -6.23530
H         -2.95600       -1.17700       -8.51280
H         -2.98580        0.29090       -9.50980
H         -4.49080       -0.51310       -9.10600
H         -4.84690        4.18180       -8.82860
H         -6.38610        3.37340       -8.41520
H         -5.77350        3.32780      -10.08700
H         -4.96890        3.58550       -6.57110
H         -5.07000        4.66150       -4.66360
H         -4.16250        4.27150       -1.77190
H         -5.30360        6.58940       -5.01300
H         -5.90280        9.58770       -6.62820
H         -7.41560        8.70830       -6.73840
H         -5.88020        7.83830       -6.91810
H         -8.50350       12.18200       -4.70410
H         -8.96080       11.08300       -3.37910
H         -7.40570       11.96060       -3.31950
H         -7.35800        9.99690       -2.05480
H         -7.15530        9.54540        0.07860
H         -5.96500        7.41190        1.92100
H         -6.83400        8.95060        2.41480
