250

C          1.98300        8.55080       -4.91710
C          0.95940        7.76470       -4.52850
C          0.94180        7.53080       -3.12150
C          0.03580        6.75370       -2.38460
C         -1.08680        6.07650       -3.05410
C         -1.21400        4.68990       -3.03230
C         -2.23090        4.07130       -3.72970
C         -3.18920        4.80830       -4.42180
S         -4.50590        3.90660       -5.18590
C         -4.75190        4.75800       -6.78840
C         -3.48600        4.77110       -7.62140
C         -3.07380        6.19480       -4.39680
F         -3.98760        6.98010       -5.01110
C         -2.02720        6.82470       -3.75400
C          0.26950        6.64750       -1.02460
C          1.34350        7.29990       -0.36770
C          2.24290        8.08890       -1.10330
C          3.35610        8.79450       -0.45610
C          4.66250        8.67120       -0.92730
C          5.69550        9.35060       -0.32040
C          5.47550       10.18050        0.77860
S          6.88980       10.96360        1.48550
C          6.24070       12.54560        2.15930
C          7.38560       13.53300        2.26910
C          4.16970       10.28100        1.24910
C          3.12410        9.61340        0.64430
F          3.87430       11.03980        2.33040
C          2.02490        8.17000       -2.47280
S          2.99860        9.06380       -3.61370
C          1.35870        7.01900        1.02030
C          0.32650        6.22900        1.44460
S         -0.70980        5.74910        0.10580
C          0.10380        5.78250        2.77620
S          1.41310        5.85360        3.91460
C          0.49940        5.06720        5.15790
C         -0.80800        4.84050        4.72780
C         -1.03350        5.23650        3.37450
C         -2.32500        5.07900        2.82690
C         -3.33220        4.50940        3.54880
C         -4.69950        4.31430        2.97740
C         -3.08700        4.08950        4.89650
O         -4.15120        3.51000        5.51580
C         -3.96850        2.99160        6.80800
C         -1.86740        4.29100        5.48180
C          1.11830        4.75630        6.41540
C          0.95240        3.62190        7.12650
C          0.27250        2.43690        6.67990
C         -0.35710        1.49790        7.44480
C         -0.98190        0.46730        6.69240
C         -1.73570       -0.63090        7.14280
C         -2.01440       -0.84920        8.56800
C         -2.55210        0.15980        9.36570
C         -2.80940       -0.06220       10.70120
C         -2.55070       -1.29540       11.29700
S         -2.96790       -1.46560       13.00730
C         -1.63040       -2.50560       13.70130
C         -0.26240       -1.88980       13.48800
C         -2.04290       -2.30240       10.48210
F         -1.79930       -3.53690       10.97460
C         -1.76510       -2.08880        9.14740
C         -2.21510       -1.49680        6.17080
C         -2.00310       -1.31720        4.78020
C         -1.26710       -0.21080        4.33010
C         -1.01970        0.09040        2.91360
C         -1.33710        1.34840        2.40160
C         -1.00550        1.68360        1.10740
C         -0.36270        0.77570        0.26860
S          0.01850        1.31040       -1.37670
C          1.69030        0.63550       -1.67440
C          2.68710        1.10430       -0.63450
C         -0.10360       -0.49310        0.77530
C         -0.40830       -0.83480        2.07790
F          0.48000       -1.44390        0.01330
C         -0.76730        0.63840        5.30350
S          0.21370        2.03410        4.97380
C         -2.65440       -2.30940        4.01200
C         -3.36850       -3.21580        4.74840
S         -3.23090       -2.88310        6.46980
C         -4.12530       -4.30650        4.24110
S         -3.88790       -4.80440        2.59400
C         -5.07610       -6.06140        2.69100
C         -5.65240       -6.07610        3.97330
C         -5.10490       -5.09460        4.85350
C         -5.59780       -5.00660        6.17300
C         -6.57210       -5.84970        6.61680
C         -7.10640       -5.77780        8.01000
C         -7.10960       -6.83700        5.73290
O         -8.07390       -7.62010        6.28540
C         -8.66660       -8.62130        5.49690
C         -6.66080       -6.94230        4.44300
C         -5.36080       -7.00620        1.67320
C         -4.76900       -7.28230        0.48770
C         -3.69720       -6.62720       -0.20130
C         -3.41610       -5.31080       -0.40670
C         -2.26040       -5.08060       -1.20180
C         -1.69760       -3.85270       -1.59420
C         -2.30330       -2.56950       -1.22500
C         -2.71670       -2.30040        0.07860
C         -3.29350       -1.09170        0.39830
C         -3.48500       -0.09420       -0.55920
S         -4.26040        1.38330        0.00380
C         -3.79190        2.65030       -1.23620
C         -4.05330        4.02690       -0.66350
C         -3.07770       -0.37990       -1.85910
F         -3.25930        0.49910       -2.86850
C         -2.49100       -1.58470       -2.18850
C         -0.54450       -3.91350       -2.36640
C          0.05560       -5.13140       -2.76870
C         -0.52780       -6.35850       -2.41140
C          0.05320       -7.62260       -2.88200
C         -0.72370       -8.55130       -3.57150
C         -0.15780       -9.70110       -4.08150
C          1.20140       -9.96320       -3.93500
S          1.86110      -11.41660       -4.70590
C          2.91390      -12.14100       -3.39340
C          2.11650      -12.45710       -2.14450
C          1.96530       -9.02930       -3.24370
C          1.40800       -7.88820       -2.70460
F          3.29840       -9.20420       -3.09550
C         -1.67360       -6.29680       -1.63730
S         -2.55560       -7.67390       -1.04150
C          1.22640       -4.92020       -3.53440
C          1.55720       -3.60400       -3.67900
S          0.38700       -2.54940       -2.92310
C          2.71970       -3.09930       -4.33830
C          3.68510       -3.84440       -4.94890
C          4.73420       -3.07540       -5.51100
C          5.86500       -3.53520       -6.20620
C          6.06950       -4.97210       -6.42360
C          5.05040       -5.77480       -6.93100
C          5.20380       -7.14270       -7.04450
C          6.38780       -7.76020       -6.65490
S          6.68050       -9.49290       -6.71020
C          4.98870      -10.19260       -6.80990
C          5.06660      -11.68900       -6.57740
C          7.42030       -6.93770       -6.19900
F          8.59240       -7.49750       -5.83920
C          7.27780       -5.57420       -6.07710
C          6.76710       -2.56840       -6.62750
C          6.59040       -1.18400       -6.38390
C          5.46920       -0.73000       -5.67540
C          5.27560        0.68590       -5.33690
C          5.08050        1.05210       -4.00840
C          4.88970        2.37100       -3.65140
C          4.86110        3.37200       -4.61600
S          4.59570        5.08030       -4.26870
C          3.74990        5.03530       -2.65220
C          2.40400        4.34570       -2.73790
C          5.07380        2.99320       -5.94170
C          5.28350        1.68150       -6.30960
F          5.06980        3.93800       -6.90350
C          4.56180       -1.69290       -5.26120
S          3.07480       -1.38510       -4.39890
C          7.67240       -0.41610       -6.90830
C          8.59550       -1.17160       -7.53630
S          8.23280       -2.86350       -7.52730
H          2.22860        8.87160       -5.91020
H          0.23660        7.34520       -5.20470
H         -0.50060        4.08650       -2.49380
H         -2.30140        2.99590       -3.75020
H         -5.53200        4.16680       -7.26820
H         -5.13050        5.76100       -6.60440
H         -3.69190        5.21010       -8.59560
H         -2.70900        5.35960       -7.13670
H         -3.11280        3.75910       -7.76430
H         -1.97260        7.90250       -3.77770
H          4.87550        8.03460       -1.77200
H          6.70410        9.25120       -0.69000
H          5.79520       12.34910        3.13330
H          5.47810       12.90150        1.46820
H          7.02010       14.47520        2.67170
H          8.15890       13.14800        2.93010
H          7.82740       13.71650        1.29240
H          2.12770        9.75070        1.03520
H          2.11110        7.39020        1.69300
H         -2.52000        5.43400        1.82730
H         -5.45340        4.47780        3.74310
H         -4.87070        4.99400        2.14750
H         -4.81000        3.29120        2.61640
H         -4.91010        2.51210        7.07180
H         -3.16410        2.24770        6.82450
H         -3.74850        3.78190        7.53390
H         -1.68420        4.03690        6.51230
H          1.78690        5.51310        6.80690
H          1.38420        3.56090        8.11710
H         -0.39850        1.55290        8.51850
H         -2.78560        1.12010        8.93180
H         -3.22410        0.72230       11.31510
H         -1.69970       -3.50430       13.27610
H         -1.87930       -2.55290       14.76150
H          0.49220       -2.49300       13.98880
H         -0.01730       -1.84490       12.42850
H         -0.23000       -0.88070       13.89380
H         -1.35090       -2.90070        8.57020
H         -1.84400        2.07100        3.02210
H         -1.22980        2.66890        0.72860
H          1.94380        1.00410       -2.66850
H          1.62730       -0.44880       -1.71620
H          2.43050        0.71810        0.35050
H          3.68010        0.74320       -0.89480
H          2.70840        2.19090       -0.57980
H         -0.14800       -1.82060        2.43150
H         -2.61810       -2.33600        2.93940
H         -5.20260       -4.26000        6.84230
H         -6.61080       -4.99260        8.57380
H         -8.17800       -5.58580        7.98970
H         -6.95900       -6.73110        8.51490
H         -9.18120       -8.19740        4.62830
H         -9.39430       -9.11200        6.14130
H         -7.92880       -9.35670        5.15940
H         -7.07250       -7.68070        3.77540
H         -6.15830       -7.68440        1.94920
H         -5.10230       -8.18700       -0.00750
H         -4.05540       -4.52170       -0.05750
H         -2.55180       -3.04220        0.84460
H         -3.61000       -0.88190        1.40860
H         -4.37950        2.48730       -2.13790
H         -2.73250        2.50980       -1.44250
H         -3.76560        4.78220       -1.39140
H         -3.47030        4.17300        0.24110
H         -5.10780        4.14970       -0.42740
H         -2.21540       -1.74910       -3.21830
H         -1.77460       -8.36020       -3.72280
H         -0.76140      -10.41450       -4.62050
H          3.30420      -13.04870       -3.85330
H          3.73970      -11.46320       -3.18910
H          2.75960      -12.94210       -1.41280
H          1.71410      -11.54810       -1.70010
H          1.28820      -13.12280       -2.37800
H          2.04060       -7.21120       -2.15120
H          1.80190       -5.71890       -3.96250
H          3.66350       -4.91720       -4.98470
H          4.12830       -5.31930       -7.25980
H          4.39130       -7.73040       -7.44030
H          4.38720       -9.70950       -6.04070
H          4.58120       -9.97700       -7.79760
H          5.67030      -12.16490       -7.34650
H          4.06500      -12.11320       -6.60100
H          5.51450      -11.89850       -5.60880
H          8.09770       -4.99600       -5.68170
H          5.10110        0.29390       -3.24030
H          4.77310        2.61580       -2.60870
H          3.62500        6.08610       -2.39530
H          4.41170        4.57880       -1.91670
H          2.51150        3.30710       -3.04100
H          1.91090        4.37980       -1.76840
H          1.77440        4.84890       -3.46740
H          5.42140        1.44160       -7.35240
H          7.74400        0.65120       -6.80380
H          9.49780       -0.84580       -8.01590
