
  xtb     03032220173D
 energy: -141.211338940519 gnorm: 0.000219478505 xtb: 6.4.1 (unknown)
 90 97  0     0  0            999 V2000
    1.0473    1.2589    3.2970 C   0  0  0  0  0  0  0  0  0  0  0  0
   -0.6060    0.8856    3.1300 S   0  0  0  0  0  0  0  0  0  0  0  0
   -0.5922    1.1857    1.4100 C   0  0  0  0  0  0  0  0  0  0  0  0
    0.6678    1.6443    1.0237 C   0  0  0  0  0  0  0  0  0  0  0  0
    1.6096    1.6534    2.1036 C   0  0  0  0  0  0  0  0  0  0  0  0
    2.9365    2.0836    1.8684 C   0  0  0  0  0  0  0  0  0  0  0  0
    3.3220    2.4956    0.6302 C   0  0  0  0  0  0  0  0  0  0  0  0
    4.7122    2.9606    0.3361 C   0  0  0  0  0  0  0  0  0  0  0  0
    2.3616    2.5336   -0.4330 C   0  0  0  0  0  0  0  0  0  0  0  0
    2.8552    2.9942   -1.6142 O   0  0  0  0  0  0  0  0  0  0  0  0
    2.0186    2.9739   -2.7429 C   0  0  0  0  0  0  0  0  0  0  0  0
    1.0604    2.1524   -0.2323 C   0  0  0  0  0  0  0  0  0  0  0  0
   -1.8196    0.9974    0.7175 C   0  0  0  0  0  0  0  0  0  0  0  0
   -2.0939    0.6232   -0.5625 C   0  0  0  0  0  0  0  0  0  0  0  0
   -1.2699    0.1156   -1.5918 C   0  0  0  0  0  0  0  0  0  0  0  0
    0.3764   -0.3658   -1.3639 S   0  0  0  0  0  0  0  0  0  0  0  0
    0.5803   -0.8784   -3.0121 C   0  0  0  0  0  0  0  0  0  0  0  0
   -0.6384   -0.7401   -3.7030 C   0  0  0  0  0  0  0  0  0  0  0  0
   -1.6803   -0.1876   -2.9036 C   0  0  0  0  0  0  0  0  0  0  0  0
   -2.9561   -0.0031   -3.4703 C   0  0  0  0  0  0  0  0  0  0  0  0
   -3.2071   -0.3512   -4.7661 C   0  0  0  0  0  0  0  0  0  0  0  0
   -4.5570   -0.1822   -5.3877 C   0  0  0  0  0  0  0  0  0  0  0  0
   -2.1570   -0.8986   -5.5631 C   0  0  0  0  0  0  0  0  0  0  0  0
   -2.5222   -1.2059   -6.8417 O   0  0  0  0  0  0  0  0  0  0  0  0
   -1.5554   -1.7478   -7.7040 C   0  0  0  0  0  0  0  0  0  0  0  0
   -0.9031   -1.0861   -5.0433 C   0  0  0  0  0  0  0  0  0  0  0  0
    1.8281   -1.1996   -3.6064 C   0  0  0  0  0  0  0  0  0  0  0  0
    3.0801   -1.2635   -3.0872 C   0  0  0  0  0  0  0  0  0  0  0  0
    3.4607   -1.1996   -1.7099 C   0  0  0  0  0  0  0  0  0  0  0  0
    4.9821   -0.4832   -1.2291 S   0  0  0  0  0  0  0  0  0  0  0  0
    4.6604   -0.7679    0.4484 C   0  0  0  0  0  0  0  0  0  0  0  0
    5.6523   -0.3627    1.4767 C   0  0  0  0  0  0  0  0  0  0  0  0
    3.4431   -1.3820    0.6240 C   0  0  0  0  0  0  0  0  0  0  0  0
    2.8004   -1.6604   -0.6101 C   0  0  0  0  0  0  0  0  0  0  0  0
    2.7732   -1.6556    1.8694 C   0  0  0  0  0  0  0  0  0  0  0  0
    3.5325   -1.6194    3.4343 S   0  0  0  0  0  0  0  0  0  0  0  0
    2.0408   -1.9799    4.2381 C   0  0  0  0  0  0  0  0  0  0  0  0
    2.0139   -2.0906    5.7198 C   0  0  0  0  0  0  0  0  0  0  0  0
    1.0087   -2.1124    3.3392 C   0  0  0  0  0  0  0  0  0  0  0  0
    1.4440   -1.9271    2.0001 C   0  0  0  0  0  0  0  0  0  0  0  0
   -0.3799   -2.3556    3.6391 C   0  0  0  0  0  0  0  0  0  0  0  0
   -0.9867   -2.6659    5.2413 S   0  0  0  0  0  0  0  0  0  0  0  0
   -2.6214   -2.7664    4.6798 C   0  0  0  0  0  0  0  0  0  0  0  0
   -3.7073   -3.0123    5.6658 C   0  0  0  0  0  0  0  0  0  0  0  0
   -2.6919   -2.5727    3.3201 C   0  0  0  0  0  0  0  0  0  0  0  0
   -1.4136   -2.3414    2.7487 C   0  0  0  0  0  0  0  0  0  0  0  0
   -3.8847   -2.5563    2.5070 C   0  0  0  0  0  0  0  0  0  0  0  0
   -3.7876   -1.8778    0.9012 S   0  0  0  0  0  0  0  0  0  0  0  0
   -5.4664   -2.1844    0.6071 C   0  0  0  0  0  0  0  0  0  0  0  0
   -6.0859   -1.7850   -0.6851 C   0  0  0  0  0  0  0  0  0  0  0  0
   -6.0452   -2.7776    1.6853 C   0  0  0  0  0  0  0  0  0  0  0  0
   -5.1560   -2.9895    2.7601 C   0  0  0  0  0  0  0  0  0  0  0  0
    1.5234    1.1706    4.2532 H   0  0  0  0  0  0  0  0  0  0  0  0
    3.6320    2.0955    2.6951 H   0  0  0  0  0  0  0  0  0  0  0  0
    5.3257    2.9414    1.2327 H   0  0  0  0  0  0  0  0  0  0  0  0
    5.1637    2.3250   -0.4240 H   0  0  0  0  0  0  0  0  0  0  0  0
    4.6893    3.9734   -0.0623 H   0  0  0  0  0  0  0  0  0  0  0  0
    1.1737    3.6620   -2.6334 H   0  0  0  0  0  0  0  0  0  0  0  0
    2.6394    3.2978   -3.5770 H   0  0  0  0  0  0  0  0  0  0  0  0
    1.6417    1.9660   -2.9420 H   0  0  0  0  0  0  0  0  0  0  0  0
    0.3139    2.2716   -0.9989 H   0  0  0  0  0  0  0  0  0  0  0  0
   -2.6889    1.1372    1.3508 H   0  0  0  0  0  0  0  0  0  0  0  0
   -3.1425    0.6472   -0.8318 H   0  0  0  0  0  0  0  0  0  0  0  0
   -3.7510    0.4128   -2.8696 H   0  0  0  0  0  0  0  0  0  0  0  0
   -5.2613    0.2405   -4.6760 H   0  0  0  0  0  0  0  0  0  0  0  0
   -4.4900    0.4705   -6.2567 H   0  0  0  0  0  0  0  0  0  0  0  0
   -4.9316   -1.1441   -5.7347 H   0  0  0  0  0  0  0  0  0  0  0  0
   -2.0615   -1.9026   -8.6558 H   0  0  0  0  0  0  0  0  0  0  0  0
   -0.7149   -1.0609   -7.8496 H   0  0  0  0  0  0  0  0  0  0  0  0
   -1.1787   -2.7078   -7.3351 H   0  0  0  0  0  0  0  0  0  0  0  0
   -0.1127   -1.5118   -5.6394 H   0  0  0  0  0  0  0  0  0  0  0  0
    1.7628   -1.3320   -4.6796 H   0  0  0  0  0  0  0  0  0  0  0  0
    3.9013   -1.3454   -3.7880 H   0  0  0  0  0  0  0  0  0  0  0  0
    6.0453   -1.2399    1.9933 H   0  0  0  0  0  0  0  0  0  0  0  0
    5.1865    0.2786    2.2243 H   0  0  0  0  0  0  0  0  0  0  0  0
    6.4798    0.1706    1.0160 H   0  0  0  0  0  0  0  0  0  0  0  0
    1.9092   -2.2535   -0.6832 H   0  0  0  0  0  0  0  0  0  0  0  0
    1.7043   -3.0905    6.0267 H   0  0  0  0  0  0  0  0  0  0  0  0
    1.3030   -1.3817    6.1469 H   0  0  0  0  0  0  0  0  0  0  0  0
    3.0012   -1.8898    6.1291 H   0  0  0  0  0  0  0  0  0  0  0  0
    0.7762   -1.9675    1.1616 H   0  0  0  0  0  0  0  0  0  0  0  0
   -3.3276   -2.8852    6.6772 H   0  0  0  0  0  0  0  0  0  0  0  0
   -4.0949   -4.0284    5.5737 H   0  0  0  0  0  0  0  0  0  0  0  0
   -4.5298   -2.3151    5.5076 H   0  0  0  0  0  0  0  0  0  0  0  0
   -1.2919   -2.1574    1.6966 H   0  0  0  0  0  0  0  0  0  0  0  0
   -6.2678   -0.7089   -0.7057 H   0  0  0  0  0  0  0  0  0  0  0  0
   -5.4291   -2.0293   -1.5188 H   0  0  0  0  0  0  0  0  0  0  0  0
   -7.0370   -2.2956   -0.8186 H   0  0  0  0  0  0  0  0  0  0  0  0
   -7.0830   -3.0613    1.7144 H   0  0  0  0  0  0  0  0  0  0  0  0
   -5.4550   -3.4697    3.6724 H   0  0  0  0  0  0  0  0  0  0  0  0
  1  2  1  0  0  0  0
  2  3  1  0  0  0  0
  3  4  2  0  0  0  0
  4  5  1  0  0  0  0
  5  6  1  0  0  0  0
  6  7  2  0  0  0  0
  7  8  1  0  0  0  0
  7  9  1  0  0  0  0
  9 10  1  0  0  0  0
 10 11  1  0  0  0  0
  9 12  2  0  0  0  0
  3 13  1  0  0  0  0
 13 14  2  0  0  0  0
 14 15  1  0  0  0  0
 15 16  1  0  0  0  0
 16 17  1  0  0  0  0
 17 18  2  0  0  0  0
 18 19  1  0  0  0  0
 19 20  1  0  0  0  0
 20 21  2  0  0  0  0
 21 22  1  0  0  0  0
 21 23  1  0  0  0  0
 23 24  1  0  0  0  0
 24 25  1  0  0  0  0
 23 26  2  0  0  0  0
 17 27  1  0  0  0  0
 27 28  2  0  0  0  0
 28 29  1  0  0  0  0
 29 30  1  0  0  0  0
 30 31  1  0  0  0  0
 31 32  1  0  0  0  0
 31 33  2  0  0  0  0
 33 34  1  0  0  0  0
 33 35  1  0  0  0  0
 35 36  1  0  0  0  0
 36 37  1  0  0  0  0
 37 38  1  0  0  0  0
 37 39  2  0  0  0  0
 39 40  1  0  0  0  0
 39 41  1  0  0  0  0
 41 42  1  0  0  0  0
 42 43  1  0  0  0  0
 43 44  1  0  0  0  0
 43 45  2  0  0  0  0
 45 46  1  0  0  0  0
 45 47  1  0  0  0  0
 47 48  1  0  0  0  0
 48 49  1  0  0  0  0
 49 50  1  0  0  0  0
 49 51  2  0  0  0  0
 51 52  1  0  0  0  0
  5  1  2  0  0  0  0
 19 15  2  0  0  0  0
 34 29  2  0  0  0  0
 40 35  2  0  0  0  0
 46 41  2  0  0  0  0
 52 47  2  0  0  0  0
 12  4  1  0  0  0  0
 26 18  1  0  0  0  0
  1 53  1  0  0  0  0
  6 54  1  0  0  0  0
  8 55  1  0  0  0  0
  8 56  1  0  0  0  0
  8 57  1  0  0  0  0
 11 58  1  0  0  0  0
 11 59  1  0  0  0  0
 11 60  1  0  0  0  0
 12 61  1  0  0  0  0
 13 62  1  0  0  0  0
 14 63  1  0  0  0  0
 20 64  1  0  0  0  0
 22 65  1  0  0  0  0
 22 66  1  0  0  0  0
 22 67  1  0  0  0  0
 25 68  1  0  0  0  0
 25 69  1  0  0  0  0
 25 70  1  0  0  0  0
 26 71  1  0  0  0  0
 27 72  1  0  0  0  0
 28 73  1  0  0  0  0
 32 74  1  0  0  0  0
 32 75  1  0  0  0  0
 32 76  1  0  0  0  0
 34 77  1  0  0  0  0
 38 78  1  0  0  0  0
 38 79  1  0  0  0  0
 38 80  1  0  0  0  0
 40 81  1  0  0  0  0
 44 82  1  0  0  0  0
 44 83  1  0  0  0  0
 44 84  1  0  0  0  0
 46 85  1  0  0  0  0
 50 86  1  0  0  0  0
 50 87  1  0  0  0  0
 50 88  1  0  0  0  0
 51 89  1  0  0  0  0
 52 90  1  0  0  0  0
M  END
