
  xtb     03032207263D
 energy: -368.834725521707 gnorm: 0.000143691177 xtb: 6.4.1 (unknown)
200220  0     0  0            999 V2000
    6.7371   -4.4603    6.1130 C   0  0  0  0  0  0  0  0  0  0  0  0
    6.6885   -3.3037    5.4234 C   0  0  0  0  0  0  0  0  0  0  0  0
    5.3700   -2.7694    5.3287 C   0  0  0  0  0  0  0  0  0  0  0  0
    4.9508   -1.5804    4.7086 C   0  0  0  0  0  0  0  0  0  0  0  0
    5.8872   -0.7209    4.0021 C   0  0  0  0  0  0  0  0  0  0  0  0
    7.3483   -0.1352    4.7416 S   0  0  0  0  0  0  0  0  0  0  0  0
    7.8537    0.6756    3.2988 C   0  0  0  0  0  0  0  0  0  0  0  0
    9.1656    1.3745    3.2192 C   0  0  0  0  0  0  0  0  0  0  0  0
   10.2549    0.4228    2.7191 C   0  0  0  0  0  0  0  0  0  0  0  0
    6.9359    0.4905    2.3093 C   0  0  0  0  0  0  0  0  0  0  0  0
    7.1069    1.0984    0.7137 Cl  0  0  0  0  0  0  0  0  0  0  0  0
    5.8149   -0.2846    2.7080 C   0  0  0  0  0  0  0  0  0  0  0  0
    4.5614   -0.6923    1.6156 Cl  0  0  0  0  0  0  0  0  0  0  0  0
    3.5945   -1.2883    4.7622 C   0  0  0  0  0  0  0  0  0  0  0  0
    2.6380   -2.1471    5.3577 C   0  0  0  0  0  0  0  0  0  0  0  0
    3.0589   -3.3249    5.9960 C   0  0  0  0  0  0  0  0  0  0  0  0
    2.1301   -4.1986    6.6899 C   0  0  0  0  0  0  0  0  0  0  0  0
    2.1625   -5.9217    6.4546 S   0  0  0  0  0  0  0  0  0  0  0  0
    0.9163   -6.1874    7.6273 C   0  0  0  0  0  0  0  0  0  0  0  0
    0.4443   -7.5630    7.9475 C   0  0  0  0  0  0  0  0  0  0  0  0
   -0.4396   -8.1352    6.8386 C   0  0  0  0  0  0  0  0  0  0  0  0
    0.4945   -4.9993    8.1447 C   0  0  0  0  0  0  0  0  0  0  0  0
    1.1837   -3.8715    7.6228 C   0  0  0  0  0  0  0  0  0  0  0  0
    0.9086   -2.2824    8.2124 Cl  0  0  0  0  0  0  0  0  0  0  0  0
   -0.7354   -4.8526    9.3330 Cl  0  0  0  0  0  0  0  0  0  0  0  0
    4.4219   -3.6052    5.9607 C   0  0  0  0  0  0  0  0  0  0  0  0
    5.1923   -4.9889    6.6860 S   0  0  0  0  0  0  0  0  0  0  0  0
    1.3170   -1.6648    5.1738 C   0  0  0  0  0  0  0  0  0  0  0  0
    1.2535   -0.4605    4.5413 C   0  0  0  0  0  0  0  0  0  0  0  0
    2.8477    0.1525    4.1351 S   0  0  0  0  0  0  0  0  0  0  0  0
    0.0832    0.2405    4.1207 C   0  0  0  0  0  0  0  0  0  0  0  0
   -1.2029   -0.6337    3.3542 S   0  0  0  0  0  0  0  0  0  0  0  0
   -2.1455    0.8038    3.1041 C   0  0  0  0  0  0  0  0  0  0  0  0
   -1.4831    1.9213    3.6343 C   0  0  0  0  0  0  0  0  0  0  0  0
   -0.2030    1.6020    4.1767 C   0  0  0  0  0  0  0  0  0  0  0  0
    0.5950    2.6310    4.7230 C   0  0  0  0  0  0  0  0  0  0  0  0
    0.1585    3.9217    4.7152 C   0  0  0  0  0  0  0  0  0  0  0  0
    0.9776    5.0392    5.2752 C   0  0  0  0  0  0  0  0  0  0  0  0
   -1.1216    4.2371    4.1563 C   0  0  0  0  0  0  0  0  0  0  0  0
   -1.4414    5.5587    4.1992 O   0  0  0  0  0  0  0  0  0  0  0  0
   -2.6451    5.9782    3.6074 C   0  0  0  0  0  0  0  0  0  0  0  0
   -1.9267    3.2572    3.6363 C   0  0  0  0  0  0  0  0  0  0  0  0
   -3.3538    0.7946    2.3782 C   0  0  0  0  0  0  0  0  0  0  0  0
   -3.7374   -0.1775    1.5062 C   0  0  0  0  0  0  0  0  0  0  0  0
   -4.8876   -0.0748    0.6901 C   0  0  0  0  0  0  0  0  0  0  0  0
   -4.8175   -0.6476   -0.9511 S   0  0  0  0  0  0  0  0  0  0  0  0
   -6.3015    0.1547   -1.3879 C   0  0  0  0  0  0  0  0  0  0  0  0
   -6.8964    0.7295   -0.2483 C   0  0  0  0  0  0  0  0  0  0  0  0
   -6.0925    0.6083    0.9208 C   0  0  0  0  0  0  0  0  0  0  0  0
   -6.5752    1.1206    2.1421 C   0  0  0  0  0  0  0  0  0  0  0  0
   -7.7743    1.7715    2.2007 C   0  0  0  0  0  0  0  0  0  0  0  0
   -8.3161    2.3209    3.4816 C   0  0  0  0  0  0  0  0  0  0  0  0
   -8.5518    1.9303    1.0135 C   0  0  0  0  0  0  0  0  0  0  0  0
   -9.7211    2.6066    1.1913 O   0  0  0  0  0  0  0  0  0  0  0  0
  -10.5689    2.7867    0.0854 C   0  0  0  0  0  0  0  0  0  0  0  0
   -8.1255    1.4094   -0.1822 C   0  0  0  0  0  0  0  0  0  0  0  0
   -6.6793    0.3660   -2.7237 C   0  0  0  0  0  0  0  0  0  0  0  0
   -5.9057    0.0364   -3.7996 C   0  0  0  0  0  0  0  0  0  0  0  0
   -6.0437    0.5170   -5.1145 C   0  0  0  0  0  0  0  0  0  0  0  0
   -4.6092    0.4744   -6.0926 S   0  0  0  0  0  0  0  0  0  0  0  0
   -5.2517    1.5663   -7.2739 C   0  0  0  0  0  0  0  0  0  0  0  0
   -6.6008    1.8363   -6.9888 C   0  0  0  0  0  0  0  0  0  0  0  0
   -7.0542    1.2426   -5.7733 C   0  0  0  0  0  0  0  0  0  0  0  0
   -8.4011    1.4076   -5.4000 C   0  0  0  0  0  0  0  0  0  0  0  0
   -9.2531    2.1680   -6.1504 C   0  0  0  0  0  0  0  0  0  0  0  0
  -10.6905    2.3492   -5.7785 C   0  0  0  0  0  0  0  0  0  0  0  0
   -8.7735    2.8095   -7.3313 C   0  0  0  0  0  0  0  0  0  0  0  0
   -9.7053    3.5585   -7.9846 O   0  0  0  0  0  0  0  0  0  0  0  0
   -9.3280    4.2198   -9.1657 C   0  0  0  0  0  0  0  0  0  0  0  0
   -7.4771    2.6393   -7.7442 C   0  0  0  0  0  0  0  0  0  0  0  0
   -4.4981    2.0486   -8.3784 C   0  0  0  0  0  0  0  0  0  0  0  0
   -3.1527    2.1223   -8.5123 C   0  0  0  0  0  0  0  0  0  0  0  0
   -2.1620    1.8795   -7.4995 C   0  0  0  0  0  0  0  0  0  0  0  0
   -0.9707    1.2370   -7.6579 C   0  0  0  0  0  0  0  0  0  0  0  0
   -0.2468    1.0625   -6.4509 C   0  0  0  0  0  0  0  0  0  0  0  0
    0.9654    0.3771   -6.2564 C   0  0  0  0  0  0  0  0  0  0  0  0
    1.7670   -0.0570   -7.3845 C   0  0  0  0  0  0  0  0  0  0  0  0
    2.3972   -1.6737   -7.4986 S   0  0  0  0  0  0  0  0  0  0  0  0
    3.1585   -1.3540   -9.0192 C   0  0  0  0  0  0  0  0  0  0  0  0
    3.9792   -2.3928   -9.7002 C   0  0  0  0  0  0  0  0  0  0  0  0
    5.3847   -2.4560   -9.0975 C   0  0  0  0  0  0  0  0  0  0  0  0
    2.9395   -0.0630   -9.3974 C   0  0  0  0  0  0  0  0  0  0  0  0
    3.5514    0.6280  -10.8447 Cl  0  0  0  0  0  0  0  0  0  0  0  0
    2.1459    0.6732   -8.4785 C   0  0  0  0  0  0  0  0  0  0  0  0
    1.7863    2.3365   -8.7004 Cl  0  0  0  0  0  0  0  0  0  0  0  0
    1.3320    0.1176   -4.9410 C   0  0  0  0  0  0  0  0  0  0  0  0
    0.5746    0.5595   -3.8302 C   0  0  0  0  0  0  0  0  0  0  0  0
   -0.5406    1.3983   -4.0248 C   0  0  0  0  0  0  0  0  0  0  0  0
   -1.2432    1.9886   -2.9009 C   0  0  0  0  0  0  0  0  0  0  0  0
   -2.9814    2.0069   -2.8111 S   0  0  0  0  0  0  0  0  0  0  0  0
   -2.9775    2.8673   -1.3108 C   0  0  0  0  0  0  0  0  0  0  0  0
   -4.2393    3.2702   -0.6299 C   0  0  0  0  0  0  0  0  0  0  0  0
   -5.3275    3.6728   -1.6192 C   0  0  0  0  0  0  0  0  0  0  0  0
   -1.6972    3.1045   -0.9082 C   0  0  0  0  0  0  0  0  0  0  0  0
   -0.7117    2.6149   -1.8047 C   0  0  0  0  0  0  0  0  0  0  0  0
    0.9635    2.9055   -1.5574 Cl  0  0  0  0  0  0  0  0  0  0  0  0
   -1.2860    3.9244    0.5430 Cl  0  0  0  0  0  0  0  0  0  0  0  0
   -0.9380    1.6034   -5.3394 C   0  0  0  0  0  0  0  0  0  0  0  0
   -2.3615    2.4602   -5.8514 S   0  0  0  0  0  0  0  0  0  0  0  0
    1.0506    0.0051   -2.6164 C   0  0  0  0  0  0  0  0  0  0  0  0
    2.1636   -0.7651   -2.7709 C   0  0  0  0  0  0  0  0  0  0  0  0
    2.7016   -0.8309   -4.4350 S   0  0  0  0  0  0  0  0  0  0  0  0
    2.7984   -1.5704   -1.7720 C   0  0  0  0  0  0  0  0  0  0  0  0
    2.1767   -2.1492   -0.7073 C   0  0  0  0  0  0  0  0  0  0  0  0
    3.0211   -3.0013    0.0455 C   0  0  0  0  0  0  0  0  0  0  0  0
    2.6805   -3.7951    1.1553 C   0  0  0  0  0  0  0  0  0  0  0  0
    1.2958   -3.9624    1.5494 C   0  0  0  0  0  0  0  0  0  0  0  0
    0.8158   -3.9039    3.2168 S   0  0  0  0  0  0  0  0  0  0  0  0
   -0.8579   -4.1136    2.8331 C   0  0  0  0  0  0  0  0  0  0  0  0
   -1.8944   -4.1353    3.9009 C   0  0  0  0  0  0  0  0  0  0  0  0
   -1.6127   -5.2258    4.9319 C   0  0  0  0  0  0  0  0  0  0  0  0
   -1.0165   -4.2508    1.4865 C   0  0  0  0  0  0  0  0  0  0  0  0
   -2.5356   -4.4681    0.7159 Cl  0  0  0  0  0  0  0  0  0  0  0  0
    0.1989   -4.1803    0.7556 C   0  0  0  0  0  0  0  0  0  0  0  0
    0.2502   -4.4739   -0.9369 Cl  0  0  0  0  0  0  0  0  0  0  0  0
    3.7301   -4.4283    1.8124 C   0  0  0  0  0  0  0  0  0  0  0  0
    5.0745   -4.3499    1.3769 C   0  0  0  0  0  0  0  0  0  0  0  0
    5.4015   -3.6079    0.2292 C   0  0  0  0  0  0  0  0  0  0  0  0
    6.7716   -3.4661   -0.2333 C   0  0  0  0  0  0  0  0  0  0  0  0
    7.1892   -3.7159   -1.9030 S   0  0  0  0  0  0  0  0  0  0  0  0
    8.8486   -3.3076   -1.6344 C   0  0  0  0  0  0  0  0  0  0  0  0
    9.8501   -3.3717   -2.7340 C   0  0  0  0  0  0  0  0  0  0  0  0
   10.4353   -4.7802   -2.8611 C   0  0  0  0  0  0  0  0  0  0  0  0
    9.0539   -3.0038   -0.3220 C   0  0  0  0  0  0  0  0  0  0  0  0
    7.8811   -3.0898    0.4734 C   0  0  0  0  0  0  0  0  0  0  0  0
    7.8852   -2.6843    2.1376 Cl  0  0  0  0  0  0  0  0  0  0  0  0
   10.5752   -2.5448    0.3280 Cl  0  0  0  0  0  0  0  0  0  0  0  0
    4.3533   -2.9771   -0.4325 C   0  0  0  0  0  0  0  0  0  0  0  0
    4.4900   -2.0008   -1.8679 S   0  0  0  0  0  0  0  0  0  0  0  0
    5.9309   -5.1574    2.1826 C   0  0  0  0  0  0  0  0  0  0  0  0
    5.2743   -5.7905    3.1750 C   0  0  0  0  0  0  0  0  0  0  0  0
    3.5766   -5.4644    3.2023 S   0  0  0  0  0  0  0  0  0  0  0  0
    7.5982   -5.0606    6.3323 H   0  0  0  0  0  0  0  0  0  0  0  0
    7.5537   -2.8338    4.9949 H   0  0  0  0  0  0  0  0  0  0  0  0
    9.4349    1.7544    4.2061 H   0  0  0  0  0  0  0  0  0  0  0  0
    9.0744    2.2168    2.5304 H   0  0  0  0  0  0  0  0  0  0  0  0
   11.2089    0.9404    2.6639 H   0  0  0  0  0  0  0  0  0  0  0  0
   10.0022    0.0510    1.7298 H   0  0  0  0  0  0  0  0  0  0  0  0
   10.3555   -0.4251    3.3926 H   0  0  0  0  0  0  0  0  0  0  0  0
    1.3120   -8.2117    8.0843 H   0  0  0  0  0  0  0  0  0  0  0  0
   -0.1152   -7.5285    8.8838 H   0  0  0  0  0  0  0  0  0  0  0  0
    0.0994   -8.1402    5.8945 H   0  0  0  0  0  0  0  0  0  0  0  0
   -0.7288   -9.1539    7.0826 H   0  0  0  0  0  0  0  0  0  0  0  0
   -1.3381   -7.5354    6.7249 H   0  0  0  0  0  0  0  0  0  0  0  0
    0.4392   -2.1904    5.5000 H   0  0  0  0  0  0  0  0  0  0  0  0
    1.5585    2.3849    5.1426 H   0  0  0  0  0  0  0  0  0  0  0  0
    1.9192    4.6677    5.6696 H   0  0  0  0  0  0  0  0  0  0  0  0
    1.1784    5.7773    4.5003 H   0  0  0  0  0  0  0  0  0  0  0  0
    0.4282    5.5444    6.0681 H   0  0  0  0  0  0  0  0  0  0  0  0
   -3.5152    5.5455    4.1126 H   0  0  0  0  0  0  0  0  0  0  0  0
   -2.6670    7.0612    3.7185 H   0  0  0  0  0  0  0  0  0  0  0  0
   -2.6773    5.7217    2.5437 H   0  0  0  0  0  0  0  0  0  0  0  0
   -2.8938    3.4865    3.2206 H   0  0  0  0  0  0  0  0  0  0  0  0
   -3.9524    1.6917    2.4525 H   0  0  0  0  0  0  0  0  0  0  0  0
   -3.0657   -1.0050    1.3145 H   0  0  0  0  0  0  0  0  0  0  0  0
   -6.0012    0.9686    3.0432 H   0  0  0  0  0  0  0  0  0  0  0  0
   -8.4695    3.3955    3.3928 H   0  0  0  0  0  0  0  0  0  0  0  0
   -7.6371    2.1220    4.3063 H   0  0  0  0  0  0  0  0  0  0  0  0
   -9.2849    1.8744    3.6995 H   0  0  0  0  0  0  0  0  0  0  0  0
  -10.0801    3.3618   -0.7081 H   0  0  0  0  0  0  0  0  0  0  0  0
  -10.9109    1.8283   -0.3192 H   0  0  0  0  0  0  0  0  0  0  0  0
  -11.4261    3.3452    0.4583 H   0  0  0  0  0  0  0  0  0  0  0  0
   -8.7232    1.4961   -1.0744 H   0  0  0  0  0  0  0  0  0  0  0  0
   -7.5713    0.9554   -2.8686 H   0  0  0  0  0  0  0  0  0  0  0  0
   -4.9934   -0.5154   -3.6067 H   0  0  0  0  0  0  0  0  0  0  0  0
   -8.7803    0.8961   -4.5295 H   0  0  0  0  0  0  0  0  0  0  0  0
  -10.9029    3.4040   -5.6095 H   0  0  0  0  0  0  0  0  0  0  0  0
  -10.9336    1.7865   -4.8810 H   0  0  0  0  0  0  0  0  0  0  0  0
  -11.3323    2.0179   -6.5932 H   0  0  0  0  0  0  0  0  0  0  0  0
   -9.0170    3.5120   -9.9412 H   0  0  0  0  0  0  0  0  0  0  0  0
   -8.5209    4.9372   -8.9846 H   0  0  0  0  0  0  0  0  0  0  0  0
  -10.2156    4.7536   -9.5019 H   0  0  0  0  0  0  0  0  0  0  0  0
   -7.1118    3.1004   -8.6469 H   0  0  0  0  0  0  0  0  0  0  0  0
   -5.0927    2.3722   -9.2244 H   0  0  0  0  0  0  0  0  0  0  0  0
   -2.7535    2.3856   -9.4839 H   0  0  0  0  0  0  0  0  0  0  0  0
   -0.6613    0.8128   -8.5961 H   0  0  0  0  0  0  0  0  0  0  0  0
    4.0445   -2.1486  -10.7619 H   0  0  0  0  0  0  0  0  0  0  0  0
    3.4954   -3.3652   -9.5926 H   0  0  0  0  0  0  0  0  0  0  0  0
    5.8865   -1.4984   -9.2113 H   0  0  0  0  0  0  0  0  0  0  0  0
    5.3289   -2.6954   -8.0383 H   0  0  0  0  0  0  0  0  0  0  0  0
    5.9726   -3.2197   -9.5994 H   0  0  0  0  0  0  0  0  0  0  0  0
   -4.0112    4.1019    0.0409 H   0  0  0  0  0  0  0  0  0  0  0  0
   -4.6010    2.4411   -0.0160 H   0  0  0  0  0  0  0  0  0  0  0  0
   -5.0076    4.5266   -2.2114 H   0  0  0  0  0  0  0  0  0  0  0  0
   -6.2366    3.9358   -1.0844 H   0  0  0  0  0  0  0  0  0  0  0  0
   -5.5481    2.8489   -2.2940 H   0  0  0  0  0  0  0  0  0  0  0  0
    0.5706    0.1531   -1.6670 H   0  0  0  0  0  0  0  0  0  0  0  0
    1.1446   -1.9718   -0.4710 H   0  0  0  0  0  0  0  0  0  0  0  0
   -1.9174   -3.1631    4.4004 H   0  0  0  0  0  0  0  0  0  0  0  0
   -2.8669   -4.2983    3.4339 H   0  0  0  0  0  0  0  0  0  0  0  0
   -2.3632   -5.2009    5.7176 H   0  0  0  0  0  0  0  0  0  0  0  0
   -0.6332   -5.0755    5.3795 H   0  0  0  0  0  0  0  0  0  0  0  0
   -1.6300   -6.2047    4.4595 H   0  0  0  0  0  0  0  0  0  0  0  0
    9.3725   -3.0897   -3.6736 H   0  0  0  0  0  0  0  0  0  0  0  0
   10.6516   -2.6616   -2.5207 H   0  0  0  0  0  0  0  0  0  0  0  0
    9.6467   -5.4978   -3.0742 H   0  0  0  0  0  0  0  0  0  0  0  0
   11.1632   -4.8107   -3.6672 H   0  0  0  0  0  0  0  0  0  0  0  0
   10.9278   -5.0688   -1.9359 H   0  0  0  0  0  0  0  0  0  0  0  0
    6.9837   -5.2704    2.0033 H   0  0  0  0  0  0  0  0  0  0  0  0
    5.6774   -6.4539    3.9147 H   0  0  0  0  0  0  0  0  0  0  0  0
  1  2  2  0  0  0  0
  2  3  1  0  0  0  0
  3  4  2  0  0  0  0
  4  5  1  0  0  0  0
  5  6  1  0  0  0  0
  6  7  1  0  0  0  0
  7  8  1  0  0  0  0
  8  9  1  0  0  0  0
  7 10  2  0  0  0  0
 10 11  1  0  0  0  0
 10 12  1  0  0  0  0
 12 13  1  0  0  0  0
  4 14  1  0  0  0  0
 14 15  2  0  0  0  0
 15 16  1  0  0  0  0
 16 17  1  0  0  0  0
 17 18  1  0  0  0  0
 18 19  1  0  0  0  0
 19 20  1  0  0  0  0
 20 21  1  0  0  0  0
 19 22  2  0  0  0  0
 22 23  1  0  0  0  0
 23 24  1  0  0  0  0
 22 25  1  0  0  0  0
 16 26  2  0  0  0  0
 26 27  1  0  0  0  0
 15 28  1  0  0  0  0
 28 29  2  0  0  0  0
 29 30  1  0  0  0  0
 29 31  1  0  0  0  0
 31 32  1  0  0  0  0
 32 33  1  0  0  0  0
 33 34  2  0  0  0  0
 34 35  1  0  0  0  0
 35 36  1  0  0  0  0
 36 37  2  0  0  0  0
 37 38  1  0  0  0  0
 37 39  1  0  0  0  0
 39 40  1  0  0  0  0
 40 41  1  0  0  0  0
 39 42  2  0  0  0  0
 33 43  1  0  0  0  0
 43 44  2  0  0  0  0
 44 45  1  0  0  0  0
 45 46  1  0  0  0  0
 46 47  1  0  0  0  0
 47 48  2  0  0  0  0
 48 49  1  0  0  0  0
 49 50  1  0  0  0  0
 50 51  2  0  0  0  0
 51 52  1  0  0  0  0
 51 53  1  0  0  0  0
 53 54  1  0  0  0  0
 54 55  1  0  0  0  0
 53 56  2  0  0  0  0
 47 57  1  0  0  0  0
 57 58  2  0  0  0  0
 58 59  1  0  0  0  0
 59 60  1  0  0  0  0
 60 61  1  0  0  0  0
 61 62  2  0  0  0  0
 62 63  1  0  0  0  0
 63 64  1  0  0  0  0
 64 65  2  0  0  0  0
 65 66  1  0  0  0  0
 65 67  1  0  0  0  0
 67 68  1  0  0  0  0
 68 69  1  0  0  0  0
 67 70  2  0  0  0  0
 61 71  1  0  0  0  0
 71 72  2  0  0  0  0
 72 73  1  0  0  0  0
 73 74  2  0  0  0  0
 74 75  1  0  0  0  0
 75 76  2  0  0  0  0
 76 77  1  0  0  0  0
 77 78  1  0  0  0  0
 78 79  1  0  0  0  0
 79 80  1  0  0  0  0
 80 81  1  0  0  0  0
 79 82  2  0  0  0  0
 82 83  1  0  0  0  0
 82 84  1  0  0  0  0
 84 85  1  0  0  0  0
 76 86  1  0  0  0  0
 86 87  2  0  0  0  0
 87 88  1  0  0  0  0
 88 89  1  0  0  0  0
 89 90  1  0  0  0  0
 90 91  1  0  0  0  0
 91 92  1  0  0  0  0
 92 93  1  0  0  0  0
 91 94  2  0  0  0  0
 94 95  1  0  0  0  0
 95 96  1  0  0  0  0
 94 97  1  0  0  0  0
 88 98  2  0  0  0  0
 98 99  1  0  0  0  0
 87100  1  0  0  0  0
100101  2  0  0  0  0
101102  1  0  0  0  0
101103  1  0  0  0  0
103104  2  0  0  0  0
104105  1  0  0  0  0
105106  2  0  0  0  0
106107  1  0  0  0  0
107108  1  0  0  0  0
108109  1  0  0  0  0
109110  1  0  0  0  0
110111  1  0  0  0  0
109112  2  0  0  0  0
112113  1  0  0  0  0
112114  1  0  0  0  0
114115  1  0  0  0  0
106116  1  0  0  0  0
116117  2  0  0  0  0
117118  1  0  0  0  0
118119  1  0  0  0  0
119120  1  0  0  0  0
120121  1  0  0  0  0
121122  1  0  0  0  0
122123  1  0  0  0  0
121124  2  0  0  0  0
124125  1  0  0  0  0
125126  1  0  0  0  0
124127  1  0  0  0  0
118128  2  0  0  0  0
128129  1  0  0  0  0
117130  1  0  0  0  0
130131  2  0  0  0  0
131132  1  0  0  0  0
 27  1  1  0  0  0  0
 35 31  2  0  0  0  0
 49 45  2  0  0  0  0
 63 59  2  0  0  0  0
 99 73  1  0  0  0  0
129103  1  0  0  0  0
 26  3  1  0  0  0  0
 42 34  1  0  0  0  0
 56 48  1  0  0  0  0
 70 62  1  0  0  0  0
 98 75  1  0  0  0  0
128105  1  0  0  0  0
 12  5  2  0  0  0  0
 30 14  1  0  0  0  0
 84 77  2  0  0  0  0
102 86  1  0  0  0  0
114107  2  0  0  0  0
132116  1  0  0  0  0
 23 17  2  0  0  0  0
 95 89  2  0  0  0  0
125119  2  0  0  0  0
  1133  1  0  0  0  0
  2134  1  0  0  0  0
  8135  1  0  0  0  0
  8136  1  0  0  0  0
  9137  1  0  0  0  0
  9138  1  0  0  0  0
  9139  1  0  0  0  0
 20140  1  0  0  0  0
 20141  1  0  0  0  0
 21142  1  0  0  0  0
 21143  1  0  0  0  0
 21144  1  0  0  0  0
 28145  1  0  0  0  0
 36146  1  0  0  0  0
 38147  1  0  0  0  0
 38148  1  0  0  0  0
 38149  1  0  0  0  0
 41150  1  0  0  0  0
 41151  1  0  0  0  0
 41152  1  0  0  0  0
 42153  1  0  0  0  0
 43154  1  0  0  0  0
 44155  1  0  0  0  0
 50156  1  0  0  0  0
 52157  1  0  0  0  0
 52158  1  0  0  0  0
 52159  1  0  0  0  0
 55160  1  0  0  0  0
 55161  1  0  0  0  0
 55162  1  0  0  0  0
 56163  1  0  0  0  0
 57164  1  0  0  0  0
 58165  1  0  0  0  0
 64166  1  0  0  0  0
 66167  1  0  0  0  0
 66168  1  0  0  0  0
 66169  1  0  0  0  0
 69170  1  0  0  0  0
 69171  1  0  0  0  0
 69172  1  0  0  0  0
 70173  1  0  0  0  0
 71174  1  0  0  0  0
 72175  1  0  0  0  0
 74176  1  0  0  0  0
 80177  1  0  0  0  0
 80178  1  0  0  0  0
 81179  1  0  0  0  0
 81180  1  0  0  0  0
 81181  1  0  0  0  0
 92182  1  0  0  0  0
 92183  1  0  0  0  0
 93184  1  0  0  0  0
 93185  1  0  0  0  0
 93186  1  0  0  0  0
100187  1  0  0  0  0
104188  1  0  0  0  0
110189  1  0  0  0  0
110190  1  0  0  0  0
111191  1  0  0  0  0
111192  1  0  0  0  0
111193  1  0  0  0  0
122194  1  0  0  0  0
122195  1  0  0  0  0
123196  1  0  0  0  0
123197  1  0  0  0  0
123198  1  0  0  0  0
130199  1  0  0  0  0
131200  1  0  0  0  0
M  END
