
  xtb     03022216323D
 energy: -368.809916366478 gnorm: 0.000438286133 xtb: 6.4.1 (unknown)
200220  0     0  0            999 V2000
    2.3326  -11.3187   10.7531 C   0  0  0  0  0  0  0  0  0  0  0  0
    3.1430  -10.2453   10.6536 C   0  0  0  0  0  0  0  0  0  0  0  0
    2.7171   -9.3216    9.6550 C   0  0  0  0  0  0  0  0  0  0  0  0
    3.3457   -8.1366    9.2414 C   0  0  0  0  0  0  0  0  0  0  0  0
    4.5679   -7.6640    9.8735 C   0  0  0  0  0  0  0  0  0  0  0  0
    4.6569   -7.3997   11.5900 S   0  0  0  0  0  0  0  0  0  0  0  0
    6.2996   -6.8625   11.5031 C   0  0  0  0  0  0  0  0  0  0  0  0
    7.0639   -6.5017   12.7289 C   0  0  0  0  0  0  0  0  0  0  0  0
    7.7148   -7.7400   13.3501 C   0  0  0  0  0  0  0  0  0  0  0  0
    6.7417   -6.9021   10.2148 C   0  0  0  0  0  0  0  0  0  0  0  0
    8.3264   -6.4534    9.7339 Cl  0  0  0  0  0  0  0  0  0  0  0  0
    5.7623   -7.3497    9.2874 C   0  0  0  0  0  0  0  0  0  0  0  0
    6.1020   -7.5490    7.6196 Cl  0  0  0  0  0  0  0  0  0  0  0  0
    2.7546   -7.4404    8.1944 C   0  0  0  0  0  0  0  0  0  0  0  0
    1.5765   -7.8837    7.5440 C   0  0  0  0  0  0  0  0  0  0  0  0
    0.9425   -9.0644    7.9635 C   0  0  0  0  0  0  0  0  0  0  0  0
   -0.2736   -9.5381    7.3233 C   0  0  0  0  0  0  0  0  0  0  0  0
   -0.3543   -9.7837    5.6031 S   0  0  0  0  0  0  0  0  0  0  0  0
   -1.9968  -10.3219    5.6764 C   0  0  0  0  0  0  0  0  0  0  0  0
   -2.7207  -10.7670    4.4539 C   0  0  0  0  0  0  0  0  0  0  0  0
   -2.4798  -12.2544    4.1854 C   0  0  0  0  0  0  0  0  0  0  0  0
   -2.4398  -10.3143    6.9651 C   0  0  0  0  0  0  0  0  0  0  0  0
   -1.4684   -9.8678    7.9010 C   0  0  0  0  0  0  0  0  0  0  0  0
   -1.8178   -9.6839    9.5683 Cl  0  0  0  0  0  0  0  0  0  0  0  0
   -4.0226  -10.7815    7.4340 Cl  0  0  0  0  0  0  0  0  0  0  0  0
    1.5350   -9.7597    9.0115 C   0  0  0  0  0  0  0  0  0  0  0  0
    0.9993  -11.2856    9.6543 S   0  0  0  0  0  0  0  0  0  0  0  0
    1.1700   -6.9896    6.5232 C   0  0  0  0  0  0  0  0  0  0  0  0
    1.9857   -5.9059    6.3911 C   0  0  0  0  0  0  0  0  0  0  0  0
    3.3065   -5.9245    7.5404 S   0  0  0  0  0  0  0  0  0  0  0  0
    1.8732   -4.8531    5.4365 C   0  0  0  0  0  0  0  0  0  0  0  0
    2.6461   -3.7368    5.3199 C   0  0  0  0  0  0  0  0  0  0  0  0
    2.2834   -2.9085    4.2287 C   0  0  0  0  0  0  0  0  0  0  0  0
    2.8573   -1.6851    3.8384 C   0  0  0  0  0  0  0  0  0  0  0  0
    3.9374   -1.0811    4.6014 C   0  0  0  0  0  0  0  0  0  0  0  0
    3.7801   -0.7768    6.3069 S   0  0  0  0  0  0  0  0  0  0  0  0
    5.3664   -0.0945    6.4128 C   0  0  0  0  0  0  0  0  0  0  0  0
    5.8908    0.4553    7.6931 C   0  0  0  0  0  0  0  0  0  0  0  0
    5.5053    1.9276    7.8556 C   0  0  0  0  0  0  0  0  0  0  0  0
    5.9672   -0.1035    5.1896 C   0  0  0  0  0  0  0  0  0  0  0  0
    7.5508    0.4891    4.8995 Cl  0  0  0  0  0  0  0  0  0  0  0  0
    5.1634   -0.6648    4.1611 C   0  0  0  0  0  0  0  0  0  0  0  0
    5.7363   -0.8698    2.5594 Cl  0  0  0  0  0  0  0  0  0  0  0  0
    2.3473   -1.0857    2.6942 C   0  0  0  0  0  0  0  0  0  0  0  0
    1.3133   -1.6689    1.9198 C   0  0  0  0  0  0  0  0  0  0  0  0
    0.6928   -2.8551    2.3475 C   0  0  0  0  0  0  0  0  0  0  0  0
   -0.4588   -3.3898    1.6418 C   0  0  0  0  0  0  0  0  0  0  0  0
   -0.5477   -5.0565    1.1576 S   0  0  0  0  0  0  0  0  0  0  0  0
   -2.1173   -4.8515    0.4597 C   0  0  0  0  0  0  0  0  0  0  0  0
   -2.8049   -5.9704   -0.2405 C   0  0  0  0  0  0  0  0  0  0  0  0
   -2.3124   -6.0867   -1.6847 C   0  0  0  0  0  0  0  0  0  0  0  0
   -2.5338   -3.5611    0.5971 C   0  0  0  0  0  0  0  0  0  0  0  0
   -1.5997   -2.7305    1.2712 C   0  0  0  0  0  0  0  0  0  0  0  0
   -1.9390   -1.0898    1.6462 Cl  0  0  0  0  0  0  0  0  0  0  0  0
   -4.0464   -2.9749    0.0282 Cl  0  0  0  0  0  0  0  0  0  0  0  0
    1.2097   -3.4576    3.4859 C   0  0  0  0  0  0  0  0  0  0  0  0
    0.6401   -4.9418    4.1933 S   0  0  0  0  0  0  0  0  0  0  0  0
    1.0332   -0.9123    0.7578 C   0  0  0  0  0  0  0  0  0  0  0  0
    1.7483    0.2463    0.6796 C   0  0  0  0  0  0  0  0  0  0  0  0
    2.8379    0.4472    2.0317 S   0  0  0  0  0  0  0  0  0  0  0  0
    1.6544    1.2203   -0.3629 C   0  0  0  0  0  0  0  0  0  0  0  0
    1.2527    0.9892   -1.6450 C   0  0  0  0  0  0  0  0  0  0  0  0
    1.1909    2.1581   -2.4392 C   0  0  0  0  0  0  0  0  0  0  0  0
    0.8146    2.2700   -3.7939 C   0  0  0  0  0  0  0  0  0  0  0  0
    0.6583    1.1134   -4.6539 C   0  0  0  0  0  0  0  0  0  0  0  0
   -0.6064    1.0446   -5.8499 S   0  0  0  0  0  0  0  0  0  0  0  0
   -0.0864   -0.4896   -6.4438 C   0  0  0  0  0  0  0  0  0  0  0  0
   -0.7801   -1.1653   -7.5756 C   0  0  0  0  0  0  0  0  0  0  0  0
   -1.4245   -0.1699   -8.5328 C   0  0  0  0  0  0  0  0  0  0  0  0
    1.0033   -0.9172   -5.7452 C   0  0  0  0  0  0  0  0  0  0  0  0
    1.7987   -2.4082   -6.0485 Cl  0  0  0  0  0  0  0  0  0  0  0  0
    1.4383   -0.0120   -4.7422 C   0  0  0  0  0  0  0  0  0  0  0  0
    2.8903   -0.2845   -3.8636 Cl  0  0  0  0  0  0  0  0  0  0  0  0
    0.5842    3.5599   -4.2564 C   0  0  0  0  0  0  0  0  0  0  0  0
    0.8045    4.7270   -3.4836 C   0  0  0  0  0  0  0  0  0  0  0  0
    1.3382    4.6102   -2.1848 C   0  0  0  0  0  0  0  0  0  0  0  0
    1.6357    5.7878   -1.3945 C   0  0  0  0  0  0  0  0  0  0  0  0
    1.0719    5.9502    0.2418 S   0  0  0  0  0  0  0  0  0  0  0  0
    1.7466    7.5337    0.4006 C   0  0  0  0  0  0  0  0  0  0  0  0
    1.6500    8.2888    1.6800 C   0  0  0  0  0  0  0  0  0  0  0  0
    2.7674    7.8764    2.6411 C   0  0  0  0  0  0  0  0  0  0  0  0
    2.3848    7.8963   -0.7486 C   0  0  0  0  0  0  0  0  0  0  0  0
    2.3198    6.9129   -1.7704 C   0  0  0  0  0  0  0  0  0  0  0  0
    3.1077    7.1070   -3.2843 Cl  0  0  0  0  0  0  0  0  0  0  0  0
    3.1867    9.3991   -0.9651 Cl  0  0  0  0  0  0  0  0  0  0  0  0
    1.4887    3.3214   -1.6869 C   0  0  0  0  0  0  0  0  0  0  0  0
    1.9864    2.9132   -0.0669 S   0  0  0  0  0  0  0  0  0  0  0  0
    0.3386    5.8895   -4.1388 C   0  0  0  0  0  0  0  0  0  0  0  0
   -0.2114    5.6513   -5.3710 C   0  0  0  0  0  0  0  0  0  0  0  0
   -0.0930    3.9569   -5.8052 S   0  0  0  0  0  0  0  0  0  0  0  0
   -0.9879    6.5394   -6.1551 C   0  0  0  0  0  0  0  0  0  0  0  0
   -1.2591    8.1573   -5.5705 S   0  0  0  0  0  0  0  0  0  0  0  0
   -2.6307    8.3797   -6.5922 C   0  0  0  0  0  0  0  0  0  0  0  0
   -2.7835    7.3030   -7.4544 C   0  0  0  0  0  0  0  0  0  0  0  0
   -1.8434    6.2525   -7.2230 C   0  0  0  0  0  0  0  0  0  0  0  0
   -1.9525    5.0782   -7.9986 C   0  0  0  0  0  0  0  0  0  0  0  0
   -2.9499    4.9301   -8.9161 C   0  0  0  0  0  0  0  0  0  0  0  0
   -3.1082    3.6710   -9.7042 C   0  0  0  0  0  0  0  0  0  0  0  0
   -3.8853    5.9918   -9.1394 C   0  0  0  0  0  0  0  0  0  0  0  0
   -4.8291    5.7238  -10.0803 O   0  0  0  0  0  0  0  0  0  0  0  0
   -5.8214    6.6896  -10.3219 C   0  0  0  0  0  0  0  0  0  0  0  0
   -3.7903    7.1605   -8.4371 C   0  0  0  0  0  0  0  0  0  0  0  0
   -3.6935    9.3423   -6.3008 C   0  0  0  0  0  0  0  0  0  0  0  0
   -4.7943    8.8600   -5.7159 C   0  0  0  0  0  0  0  0  0  0  0  0
   -4.7837    7.4744   -5.2425 C   0  0  0  0  0  0  0  0  0  0  0  0
   -5.5644    6.1778   -6.0655 S   0  0  0  0  0  0  0  0  0  0  0  0
   -4.7177    4.9519   -5.1520 C   0  0  0  0  0  0  0  0  0  0  0  0
   -3.9415    5.5560   -4.1524 C   0  0  0  0  0  0  0  0  0  0  0  0
   -3.9755    6.9838   -4.2255 C   0  0  0  0  0  0  0  0  0  0  0  0
   -3.2241    7.7529   -3.3055 C   0  0  0  0  0  0  0  0  0  0  0  0
   -2.4615    7.1528   -2.3508 C   0  0  0  0  0  0  0  0  0  0  0  0
   -1.6477    7.9409   -1.3752 C   0  0  0  0  0  0  0  0  0  0  0  0
   -2.4527    5.7249   -2.2599 C   0  0  0  0  0  0  0  0  0  0  0  0
   -1.7009    5.2270   -1.2385 O   0  0  0  0  0  0  0  0  0  0  0  0
   -1.7626    3.8505   -0.9659 C   0  0  0  0  0  0  0  0  0  0  0  0
   -3.1783    4.9551   -3.1307 C   0  0  0  0  0  0  0  0  0  0  0  0
   -4.8602    3.6182   -5.5942 C   0  0  0  0  0  0  0  0  0  0  0  0
   -4.1802    2.5196   -5.1684 C   0  0  0  0  0  0  0  0  0  0  0  0
   -4.3188    1.2257   -5.7133 C   0  0  0  0  0  0  0  0  0  0  0  0
   -5.2347    0.9151   -7.1502 S   0  0  0  0  0  0  0  0  0  0  0  0
   -4.7931   -0.7659   -7.1928 C   0  0  0  0  0  0  0  0  0  0  0  0
   -3.9994   -1.0873   -6.0905 C   0  0  0  0  0  0  0  0  0  0  0  0
   -3.7291    0.0385   -5.2531 C   0  0  0  0  0  0  0  0  0  0  0  0
   -2.9432   -0.1371   -4.0956 C   0  0  0  0  0  0  0  0  0  0  0  0
   -2.4144   -1.3543   -3.7807 C   0  0  0  0  0  0  0  0  0  0  0  0
   -1.5528   -1.5616   -2.5763 C   0  0  0  0  0  0  0  0  0  0  0  0
   -2.6920   -2.4781   -4.6187 C   0  0  0  0  0  0  0  0  0  0  0  0
   -2.1074   -3.6443   -4.2173 O   0  0  0  0  0  0  0  0  0  0  0  0
   -2.1901   -4.7581   -5.0712 C   0  0  0  0  0  0  0  0  0  0  0  0
   -3.4825   -2.3527   -5.7293 C   0  0  0  0  0  0  0  0  0  0  0  0
   -5.2573   -1.5325   -8.3106 C   0  0  0  0  0  0  0  0  0  0  0  0
   -4.7386   -2.6602   -8.8001 C   0  0  0  0  0  0  0  0  0  0  0  0
    2.4271  -12.1553   11.4176 H   0  0  0  0  0  0  0  0  0  0  0  0
    4.0214  -10.1042   11.2558 H   0  0  0  0  0  0  0  0  0  0  0  0
    6.3914   -6.0412   13.4545 H   0  0  0  0  0  0  0  0  0  0  0  0
    7.8372   -5.7802   12.4591 H   0  0  0  0  0  0  0  0  0  0  0  0
    6.9551   -8.4663   13.6292 H   0  0  0  0  0  0  0  0  0  0  0  0
    8.3955   -8.2032   12.6403 H   0  0  0  0  0  0  0  0  0  0  0  0
    8.2746   -7.4616   14.2388 H   0  0  0  0  0  0  0  0  0  0  0  0
   -3.7886  -10.5906    4.5961 H   0  0  0  0  0  0  0  0  0  0  0  0
   -2.3785  -10.1821    3.5985 H   0  0  0  0  0  0  0  0  0  0  0  0
   -1.4191  -12.4447    4.0400 H   0  0  0  0  0  0  0  0  0  0  0  0
   -2.8280  -12.8496    5.0256 H   0  0  0  0  0  0  0  0  0  0  0  0
   -3.0162  -12.5641    3.2926 H   0  0  0  0  0  0  0  0  0  0  0  0
    0.3031   -7.1371    5.9051 H   0  0  0  0  0  0  0  0  0  0  0  0
    3.4572   -3.5229    5.9924 H   0  0  0  0  0  0  0  0  0  0  0  0
    6.9785    0.3615    7.6942 H   0  0  0  0  0  0  0  0  0  0  0  0
    5.4877   -0.1215    8.5270 H   0  0  0  0  0  0  0  0  0  0  0  0
    5.9003    2.3154    8.7907 H   0  0  0  0  0  0  0  0  0  0  0  0
    5.9100    2.5151    7.0355 H   0  0  0  0  0  0  0  0  0  0  0  0
    4.4234    2.0365    7.8606 H   0  0  0  0  0  0  0  0  0  0  0  0
   -2.6113   -6.9047    0.2891 H   0  0  0  0  0  0  0  0  0  0  0  0
   -3.8794   -5.7788   -0.2341 H   0  0  0  0  0  0  0  0  0  0  0  0
   -1.2464   -6.3019   -1.7004 H   0  0  0  0  0  0  0  0  0  0  0  0
   -2.4858   -5.1551   -2.2161 H   0  0  0  0  0  0  0  0  0  0  0  0
   -2.8396   -6.8883   -2.1956 H   0  0  0  0  0  0  0  0  0  0  0  0
    0.3225   -1.2130    0.0113 H   0  0  0  0  0  0  0  0  0  0  0  0
    0.9943    0.0123   -2.0054 H   0  0  0  0  0  0  0  0  0  0  0  0
   -0.0526   -1.7871   -8.1033 H   0  0  0  0  0  0  0  0  0  0  0  0
   -1.5547   -1.8253   -7.1730 H   0  0  0  0  0  0  0  0  0  0  0  0
   -0.6713    0.4834   -8.9668 H   0  0  0  0  0  0  0  0  0  0  0  0
   -2.1501    0.4435   -8.0038 H   0  0  0  0  0  0  0  0  0  0  0  0
   -1.9373   -0.6959   -9.3337 H   0  0  0  0  0  0  0  0  0  0  0  0
    1.7267    9.3561    1.4647 H   0  0  0  0  0  0  0  0  0  0  0  0
    0.6817    8.0930    2.1436 H   0  0  0  0  0  0  0  0  0  0  0  0
    2.6852    8.4321    3.5713 H   0  0  0  0  0  0  0  0  0  0  0  0
    2.7017    6.8133    2.8603 H   0  0  0  0  0  0  0  0  0  0  0  0
    3.7389    8.0802    2.1980 H   0  0  0  0  0  0  0  0  0  0  0  0
    0.3380    6.8668   -3.6927 H   0  0  0  0  0  0  0  0  0  0  0  0
   -1.2398    4.2803   -7.8735 H   0  0  0  0  0  0  0  0  0  0  0  0
   -3.1132    3.8907  -10.7702 H   0  0  0  0  0  0  0  0  0  0  0  0
   -4.0632    3.2051   -9.4646 H   0  0  0  0  0  0  0  0  0  0  0  0
   -2.3078    2.9717   -9.4801 H   0  0  0  0  0  0  0  0  0  0  0  0
   -6.3928    6.9088   -9.4141 H   0  0  0  0  0  0  0  0  0  0  0  0
   -5.3924    7.6178  -10.7136 H   0  0  0  0  0  0  0  0  0  0  0  0
   -6.4818    6.2544  -11.0703 H   0  0  0  0  0  0  0  0  0  0  0  0
   -4.4728    7.9813   -8.5866 H   0  0  0  0  0  0  0  0  0  0  0  0
   -3.5856   10.3814   -6.5772 H   0  0  0  0  0  0  0  0  0  0  0  0
   -5.6771    9.4652   -5.5595 H   0  0  0  0  0  0  0  0  0  0  0  0
   -3.2724    8.8300   -3.3699 H   0  0  0  0  0  0  0  0  0  0  0  0
   -1.8356    7.5937   -0.3613 H   0  0  0  0  0  0  0  0  0  0  0  0
   -1.8795    8.9999   -1.4479 H   0  0  0  0  0  0  0  0  0  0  0  0
   -0.5859    7.8008   -1.5728 H   0  0  0  0  0  0  0  0  0  0  0  0
   -2.7850    3.5349   -0.7323 H   0  0  0  0  0  0  0  0  0  0  0  0
   -1.1280    3.6946   -0.0947 H   0  0  0  0  0  0  0  0  0  0  0  0
   -1.3804    3.2532   -1.8007 H   0  0  0  0  0  0  0  0  0  0  0  0
   -3.1960    3.8866   -3.0196 H   0  0  0  0  0  0  0  0  0  0  0  0
   -5.5692    3.4815   -6.4034 H   0  0  0  0  0  0  0  0  0  0  0  0
   -3.4483    2.5990   -4.3828 H   0  0  0  0  0  0  0  0  0  0  0  0
   -2.7501    0.7075   -3.4512 H   0  0  0  0  0  0  0  0  0  0  0  0
   -1.9900   -2.3193   -1.9281 H   0  0  0  0  0  0  0  0  0  0  0  0
   -1.4434   -0.6345   -2.0182 H   0  0  0  0  0  0  0  0  0  0  0  0
   -0.5710   -1.9245   -2.8806 H   0  0  0  0  0  0  0  0  0  0  0  0
   -3.2168   -5.1301   -5.1536 H   0  0  0  0  0  0  0  0  0  0  0  0
   -1.5651   -5.5265   -4.6193 H   0  0  0  0  0  0  0  0  0  0  0  0
   -1.8074   -4.5232   -6.0698 H   0  0  0  0  0  0  0  0  0  0  0  0
   -3.7450   -3.2089   -6.3257 H   0  0  0  0  0  0  0  0  0  0  0  0
   -6.1031   -1.0900   -8.8242 H   0  0  0  0  0  0  0  0  0  0  0  0
   -5.1775   -3.1397   -9.6573 H   0  0  0  0  0  0  0  0  0  0  0  0
   -3.8598   -3.1274   -8.3943 H   0  0  0  0  0  0  0  0  0  0  0  0
  1  2  2  0  0  0  0
  2  3  1  0  0  0  0
  3  4  2  0  0  0  0
  4  5  1  0  0  0  0
  5  6  1  0  0  0  0
  6  7  1  0  0  0  0
  7  8  1  0  0  0  0
  8  9  1  0  0  0  0
  7 10  2  0  0  0  0
 10 11  1  0  0  0  0
 10 12  1  0  0  0  0
 12 13  1  0  0  0  0
  4 14  1  0  0  0  0
 14 15  2  0  0  0  0
 15 16  1  0  0  0  0
 16 17  1  0  0  0  0
 17 18  1  0  0  0  0
 18 19  1  0  0  0  0
 19 20  1  0  0  0  0
 20 21  1  0  0  0  0
 19 22  2  0  0  0  0
 22 23  1  0  0  0  0
 23 24  1  0  0  0  0
 22 25  1  0  0  0  0
 16 26  2  0  0  0  0
 26 27  1  0  0  0  0
 15 28  1  0  0  0  0
 28 29  2  0  0  0  0
 29 30  1  0  0  0  0
 29 31  1  0  0  0  0
 31 32  2  0  0  0  0
 32 33  1  0  0  0  0
 33 34  2  0  0  0  0
 34 35  1  0  0  0  0
 35 36  1  0  0  0  0
 36 37  1  0  0  0  0
 37 38  1  0  0  0  0
 38 39  1  0  0  0  0
 37 40  2  0  0  0  0
 40 41  1  0  0  0  0
 40 42  1  0  0  0  0
 42 43  1  0  0  0  0
 34 44  1  0  0  0  0
 44 45  2  0  0  0  0
 45 46  1  0  0  0  0
 46 47  1  0  0  0  0
 47 48  1  0  0  0  0
 48 49  1  0  0  0  0
 49 50  1  0  0  0  0
 50 51  1  0  0  0  0
 49 52  2  0  0  0  0
 52 53  1  0  0  0  0
 53 54  1  0  0  0  0
 52 55  1  0  0  0  0
 46 56  2  0  0  0  0
 56 57  1  0  0  0  0
 45 58  1  0  0  0  0
 58 59  2  0  0  0  0
 59 60  1  0  0  0  0
 59 61  1  0  0  0  0
 61 62  2  0  0  0  0
 62 63  1  0  0  0  0
 63 64  2  0  0  0  0
 64 65  1  0  0  0  0
 65 66  1  0  0  0  0
 66 67  1  0  0  0  0
 67 68  1  0  0  0  0
 68 69  1  0  0  0  0
 67 70  2  0  0  0  0
 70 71  1  0  0  0  0
 70 72  1  0  0  0  0
 72 73  1  0  0  0  0
 64 74  1  0  0  0  0
 74 75  2  0  0  0  0
 75 76  1  0  0  0  0
 76 77  1  0  0  0  0
 77 78  1  0  0  0  0
 78 79  1  0  0  0  0
 79 80  1  0  0  0  0
 80 81  1  0  0  0  0
 79 82  2  0  0  0  0
 82 83  1  0  0  0  0
 83 84  1  0  0  0  0
 82 85  1  0  0  0  0
 76 86  2  0  0  0  0
 86 87  1  0  0  0  0
 75 88  1  0  0  0  0
 88 89  2  0  0  0  0
 89 90  1  0  0  0  0
 89 91  1  0  0  0  0
 91 92  1  0  0  0  0
 92 93  1  0  0  0  0
 93 94  2  0  0  0  0
 94 95  1  0  0  0  0
 95 96  1  0  0  0  0
 96 97  2  0  0  0  0
 97 98  1  0  0  0  0
 97 99  1  0  0  0  0
 99100  1  0  0  0  0
100101  1  0  0  0  0
 99102  2  0  0  0  0
 93103  1  0  0  0  0
103104  2  0  0  0  0
104105  1  0  0  0  0
105106  1  0  0  0  0
106107  1  0  0  0  0
107108  2  0  0  0  0
108109  1  0  0  0  0
109110  1  0  0  0  0
110111  2  0  0  0  0
111112  1  0  0  0  0
111113  1  0  0  0  0
113114  1  0  0  0  0
114115  1  0  0  0  0
113116  2  0  0  0  0
107117  1  0  0  0  0
117118  2  0  0  0  0
118119  1  0  0  0  0
119120  1  0  0  0  0
120121  1  0  0  0  0
121122  2  0  0  0  0
122123  1  0  0  0  0
123124  1  0  0  0  0
124125  2  0  0  0  0
125126  1  0  0  0  0
125127  1  0  0  0  0
127128  1  0  0  0  0
128129  1  0  0  0  0
127130  2  0  0  0  0
121131  1  0  0  0  0
131132  2  0  0  0  0
 27  1  1  0  0  0  0
 57 31  1  0  0  0  0
 87 61  1  0  0  0  0
 95 91  2  0  0  0  0
109105  2  0  0  0  0
123119  2  0  0  0  0
 26  3  1  0  0  0  0
 56 33  1  0  0  0  0
 86 63  1  0  0  0  0
102 94  1  0  0  0  0
116108  1  0  0  0  0
130122  1  0  0  0  0
 12  5  2  0  0  0  0
 30 14  1  0  0  0  0
 42 35  2  0  0  0  0
 60 44  1  0  0  0  0
 72 65  2  0  0  0  0
 90 74  1  0  0  0  0
 23 17  2  0  0  0  0
 53 47  2  0  0  0  0
 83 77  2  0  0  0  0
  1133  1  0  0  0  0
  2134  1  0  0  0  0
  8135  1  0  0  0  0
  8136  1  0  0  0  0
  9137  1  0  0  0  0
  9138  1  0  0  0  0
  9139  1  0  0  0  0
 20140  1  0  0  0  0
 20141  1  0  0  0  0
 21142  1  0  0  0  0
 21143  1  0  0  0  0
 21144  1  0  0  0  0
 28145  1  0  0  0  0
 32146  1  0  0  0  0
 38147  1  0  0  0  0
 38148  1  0  0  0  0
 39149  1  0  0  0  0
 39150  1  0  0  0  0
 39151  1  0  0  0  0
 50152  1  0  0  0  0
 50153  1  0  0  0  0
 51154  1  0  0  0  0
 51155  1  0  0  0  0
 51156  1  0  0  0  0
 58157  1  0  0  0  0
 62158  1  0  0  0  0
 68159  1  0  0  0  0
 68160  1  0  0  0  0
 69161  1  0  0  0  0
 69162  1  0  0  0  0
 69163  1  0  0  0  0
 80164  1  0  0  0  0
 80165  1  0  0  0  0
 81166  1  0  0  0  0
 81167  1  0  0  0  0
 81168  1  0  0  0  0
 88169  1  0  0  0  0
 96170  1  0  0  0  0
 98171  1  0  0  0  0
 98172  1  0  0  0  0
 98173  1  0  0  0  0
101174  1  0  0  0  0
101175  1  0  0  0  0
101176  1  0  0  0  0
102177  1  0  0  0  0
103178  1  0  0  0  0
104179  1  0  0  0  0
110180  1  0  0  0  0
112181  1  0  0  0  0
112182  1  0  0  0  0
112183  1  0  0  0  0
115184  1  0  0  0  0
115185  1  0  0  0  0
115186  1  0  0  0  0
116187  1  0  0  0  0
117188  1  0  0  0  0
118189  1  0  0  0  0
124190  1  0  0  0  0
126191  1  0  0  0  0
126192  1  0  0  0  0
126193  1  0  0  0  0
129194  1  0  0  0  0
129195  1  0  0  0  0
129196  1  0  0  0  0
130197  1  0  0  0  0
131198  1  0  0  0  0
132199  1  0  0  0  0
132200  1  0  0  0  0
M  END
