182

C          8.39050       -3.58880        4.43250
S          7.70810       -5.11990        4.76770
C          6.25520       -4.75260        3.87900
C          6.33180       -3.46140        3.34240
C          7.55830       -2.80040        3.66950
C          7.77360       -1.47550        3.21870
C          6.82880       -0.83340        2.47910
C          7.02390        0.56610        1.99000
C          5.60290       -1.50390        2.15390
O          4.73630       -0.76450        1.40530
C          3.48190       -1.31900        1.09480
C          5.35910       -2.78190        2.58200
C          5.17130       -5.65090        3.77850
C          5.05810       -6.81890        4.46250
C          3.97320       -7.72550        4.45550
S          4.03820       -9.00600        5.63690
C          2.48540       -9.62740        5.20210
C          1.98290       -8.93290        4.10190
C          2.79070       -7.82380        3.70310
C          2.29430       -6.99060        2.67730
C          1.10930       -7.25440        2.05370
C          0.56220       -6.36060        0.98680
C          0.37620       -8.43600        2.38460
O         -0.73700       -8.64420        1.62860
C         -1.46410       -9.83280        1.81940
C          0.80940       -9.25850        3.38640
C          1.76980      -10.54880        6.05580
C          0.52360      -10.29400        6.49470
C         -0.10320       -9.01900        6.20930
C          0.49850       -7.80580        6.30460
C         -0.18110       -6.76880        5.62110
C          0.31180       -5.48370        5.33660
C          1.46890       -4.95650        6.02900
S          2.72870       -4.08570        5.20600
C          3.60760       -3.80250        6.66930
C          4.88360       -3.03740        6.67520
C          4.73240       -1.67120        6.00950
C          2.94730       -4.35390        7.72650
Cl         3.49890       -4.27610        9.35030
C          1.73710       -5.00520        7.37170
Cl         0.68520       -5.67260        8.55200
C         -0.35460       -4.77360        4.34630
C         -1.54390       -5.23310        3.73130
C         -2.09290       -6.47910        4.09540
C         -3.28830       -6.99750        3.45790
S         -3.47200       -6.96950        1.72790
C         -5.00490       -7.76640        1.79470
C         -5.79800       -8.00740        0.55810
C         -6.49220       -6.72240        0.10120
C         -5.34550       -8.02790        3.08820
C         -4.37370       -7.60210        4.03250
Cl        -4.61480       -7.75550        5.72290
Cl        -6.80430       -8.80160        3.55780
C         -1.37420       -7.23070        5.01700
S         -1.66400       -8.90230        5.41950
C         -2.02220       -4.31640        2.76280
C         -1.21950       -3.22450        2.60330
S          0.15380       -3.24850        3.68770
C         -1.36130       -2.16100        1.66420
C         -2.40740       -1.90500        0.82550
C         -2.19210       -0.78990       -0.01840
C         -3.03000       -0.29140       -1.03360
C         -4.25260       -0.98130       -1.40890
S         -5.76770       -0.14010       -1.54900
C         -6.60780       -1.57010       -2.03950
C         -8.07440       -1.56260       -2.29670
C         -8.85310       -1.94760       -1.03640
C         -5.75230       -2.63020       -2.08130
Cl        -6.22210       -4.21400       -2.54360
C         -4.41680       -2.30220       -1.72760
Cl        -3.14430       -3.45540       -1.78760
C         -2.61350        0.86110       -1.68150
C         -1.37880        1.50250       -1.41230
C         -0.51400        0.97110       -0.43740
C          0.80210        1.53640       -0.19360
S          1.93370        1.73330       -1.50340
C          3.19010        2.27980       -0.44240
C          4.55380        2.57290       -0.96070
C          5.23190        1.29220       -1.45110
C          2.74020        2.31140        0.84270
C          1.38780        1.89560        0.98820
Cl         0.58010        1.92700        2.49980
Cl         3.69190        2.79650        2.18280
C         -0.95140       -0.15700        0.24350
S         -0.06000       -1.00860        1.46830
C         -1.19700        2.65380       -2.20510
C         -2.22710        2.90560       -3.07750
S         -3.48220        1.68260       -2.94590
C         -2.31950        4.00850       -3.95770
S         -1.07240        5.21990       -3.88980
C         -1.81820        6.19490       -5.11700
C         -2.99920        5.58310       -5.57190
C         -3.28360        4.34930       -4.91660
C         -4.44270        3.63680       -5.28590
C         -5.28350        4.11460       -6.24870
C         -6.51760        3.37610       -6.65430
C         -4.99050        5.35260       -6.89830
O         -5.89930        5.72520       -7.84110
C         -5.69440        6.93070       -8.53340
C         -3.87040        6.06910       -6.56490
C         -1.27480        7.42510       -5.53010
C         -0.10550        7.94260       -5.05880
C          0.48830        9.17610       -5.39510
S          2.16310        9.38520       -4.97390
C          2.25510       10.95650       -5.68850
C          1.01190       11.32540       -6.21400
C          0.00370       10.32870       -6.03690
C         -1.31230       10.62590       -6.44550
C         -1.61410       11.81050       -7.05310
C         -3.00510       12.14510       -7.48810
C         -0.58510       12.77520       -7.27940
O         -1.00260       13.90800       -7.91040
C         -0.06390       14.92460       -8.15490
C          0.69530       12.54180       -6.85510
C          3.46910       11.70830       -5.69430
C          4.62460       11.30520       -5.16080
H          9.36340       -3.34900        4.81220
H          8.69850       -0.98080        3.47550
H          7.90310        1.01440        2.44520
H          6.14800        1.16860        2.22150
H          7.14800        0.57060        0.90780
H          2.90420       -1.54190        1.99730
H          3.58300       -2.22830        0.49360
H          2.95650       -0.56350        0.51370
H          4.43050       -3.27970        2.35760
H          4.37560       -5.32290        3.13210
H          5.86790       -7.08660        5.13220
H          2.85050       -6.12270        2.36760
H          0.60640       -6.86120        0.02000
H          1.12420       -5.43150        0.93100
H         -0.48500       -6.13800        1.18530
H         -1.90560       -9.88170        2.81990
H         -0.83700      -10.71510        1.65670
H         -2.25980       -9.81330        1.07620
H          0.28270      -10.15990        3.65470
H          2.28050      -11.45010        6.36810
H         -0.03540      -11.03520        7.04700
H          1.45510       -7.67200        6.77490
H          5.20650       -2.91850        7.71090
H          5.64770       -3.61020        6.14490
H          3.99830       -1.06900        6.53900
H          4.40890       -1.78920        4.97830
H          5.68440       -1.14720        6.01260
H         -5.13820       -8.36140       -0.23650
H         -6.54370       -8.77700        0.76430
H         -7.15950       -6.35670        0.87780
H         -5.75400       -5.95410       -0.11510
H         -7.07310       -6.90910       -0.79810
H         -2.91790       -4.46560        2.19030
H         -3.31250       -2.48240        0.82480
H         -8.37760       -0.56740       -2.62440
H         -8.29630       -2.27720       -3.09210
H         -9.92020       -1.94150       -1.24080
H         -8.64660       -1.24230       -0.23510
H         -8.56680       -2.94310       -0.70670
H          4.48840        3.28850       -1.78380
H          5.13990        3.01980       -0.15640
H          6.24370        1.50850       -1.78460
H          5.27170        0.56180       -0.64730
H          4.67460        0.86660       -2.28260
H         -0.33630        3.29400       -2.13440
H         -4.67070        2.70010       -4.80410
H         -7.39500        4.00090       -6.49530
H         -6.62200        2.45740       -6.08410
H         -6.47850        3.13910       -7.71630
H         -5.69320        7.78940       -7.85380
H         -6.53150        7.02070       -9.22400
H         -4.75800        6.91540       -9.10070
H         -3.63700        7.00080       -7.05300
H         -1.83120        7.95470       -6.28640
H          0.46820        7.32810       -4.37410
H         -2.10640        9.92530       -6.24640
H         -3.69670       11.34870       -7.22650
H         -3.33070       13.07130       -7.01770
H         -3.03150       12.30400       -8.56530
H          0.74920       14.57480       -8.79940
H          0.35520       15.31720       -7.22250
H         -0.61140       15.71630       -8.66400
H          1.47280       13.27480       -6.99170
H          3.41310       12.67610       -6.17460
H          5.50580       11.92000       -5.19460
H          4.71480       10.34850       -4.67400
