
  xtb     03032214583D
 energy: -377.390061102608 gnorm: 0.000506528569 xtb: 6.4.1 (unknown)
224244  0     0  0            999 V2000
    6.2521   -2.8710  -10.2159 C   0  0  0  0  0  0  0  0  0  0  0  0
    5.3851   -2.4033   -9.2959 C   0  0  0  0  0  0  0  0  0  0  0  0
    5.8579   -1.2321   -8.6322 C   0  0  0  0  0  0  0  0  0  0  0  0
    5.2193   -0.4804   -7.6360 C   0  0  0  0  0  0  0  0  0  0  0  0
    3.9075   -0.8684   -7.0967 C   0  0  0  0  0  0  0  0  0  0  0  0
    3.7567   -1.1032   -5.7317 C   0  0  0  0  0  0  0  0  0  0  0  0
    2.5481   -1.5188   -5.2177 C   0  0  0  0  0  0  0  0  0  0  0  0
    1.4383   -1.6994   -6.0403 C   0  0  0  0  0  0  0  0  0  0  0  0
   -0.0717   -2.2206   -5.2809 S   0  0  0  0  0  0  0  0  0  0  0  0
   -0.8374   -3.3173   -6.5391 C   0  0  0  0  0  0  0  0  0  0  0  0
   -1.7409   -4.3131   -5.8388 C   0  0  0  0  0  0  0  0  0  0  0  0
    1.5909   -1.4183   -7.3937 C   0  0  0  0  0  0  0  0  0  0  0  0
    0.5415   -1.5223   -8.2423 F   0  0  0  0  0  0  0  0  0  0  0  0
    2.8040   -1.0291   -7.9259 C   0  0  0  0  0  0  0  0  0  0  0  0
    5.9093    0.6168   -7.1465 C   0  0  0  0  0  0  0  0  0  0  0  0
    7.2045    0.9856   -7.5866 C   0  0  0  0  0  0  0  0  0  0  0  0
    7.8423    0.2342   -8.5864 C   0  0  0  0  0  0  0  0  0  0  0  0
    9.1709    0.6022   -9.0892 C   0  0  0  0  0  0  0  0  0  0  0  0
    9.4362    1.8999   -9.5171 C   0  0  0  0  0  0  0  0  0  0  0  0
   10.6812    2.2542   -9.9992 C   0  0  0  0  0  0  0  0  0  0  0  0
   11.7128    1.3243  -10.0566 C   0  0  0  0  0  0  0  0  0  0  0  0
   13.3408    1.6390  -10.6543 S   0  0  0  0  0  0  0  0  0  0  0  0
   13.4752    3.4603  -10.6363 C   0  0  0  0  0  0  0  0  0  0  0  0
   13.5007    4.0226   -9.2277 C   0  0  0  0  0  0  0  0  0  0  0  0
   11.4294    0.0240   -9.6351 C   0  0  0  0  0  0  0  0  0  0  0  0
   10.1904   -0.3446   -9.1629 C   0  0  0  0  0  0  0  0  0  0  0  0
   12.4044   -0.9054   -9.6835 F   0  0  0  0  0  0  0  0  0  0  0  0
    7.1474   -0.8609   -9.0824 C   0  0  0  0  0  0  0  0  0  0  0  0
    7.7062   -1.9396  -10.3362 S   0  0  0  0  0  0  0  0  0  0  0  0
    7.7002    2.1087   -6.8764 C   0  0  0  0  0  0  0  0  0  0  0  0
    6.8142    2.6319   -5.9787 C   0  0  0  0  0  0  0  0  0  0  0  0
    5.3054    1.7303   -5.9497 S   0  0  0  0  0  0  0  0  0  0  0  0
    7.0339    3.7002   -5.0637 C   0  0  0  0  0  0  0  0  0  0  0  0
    8.6462    4.0333   -4.5137 S   0  0  0  0  0  0  0  0  0  0  0  0
    8.0971    5.1656   -3.3178 C   0  0  0  0  0  0  0  0  0  0  0  0
    6.7257    5.3720   -3.4445 C   0  0  0  0  0  0  0  0  0  0  0  0
    6.1127    4.5190   -4.4121 C   0  0  0  0  0  0  0  0  0  0  0  0
    4.7156    4.5974   -4.6038 C   0  0  0  0  0  0  0  0  0  0  0  0
    3.9577    5.4572   -3.8674 C   0  0  0  0  0  0  0  0  0  0  0  0
    2.4825    5.5744   -4.0700 C   0  0  0  0  0  0  0  0  0  0  0  0
    4.5802    6.3004   -2.8897 C   0  0  0  0  0  0  0  0  0  0  0  0
    3.7185    7.0920   -2.1947 O   0  0  0  0  0  0  0  0  0  0  0  0
    4.2315    7.8786   -1.1498 C   0  0  0  0  0  0  0  0  0  0  0  0
    5.9343    6.2775   -2.7028 C   0  0  0  0  0  0  0  0  0  0  0  0
    9.0199    5.6886   -2.3466 C   0  0  0  0  0  0  0  0  0  0  0  0
    8.8410    5.7195   -1.0074 C   0  0  0  0  0  0  0  0  0  0  0  0
    7.7775    5.1249   -0.2539 C   0  0  0  0  0  0  0  0  0  0  0  0
    7.5171    5.2944    1.0810 C   0  0  0  0  0  0  0  0  0  0  0  0
    6.3916    4.5683    1.5519 C   0  0  0  0  0  0  0  0  0  0  0  0
    5.8025    4.5583    2.8340 C   0  0  0  0  0  0  0  0  0  0  0  0
    6.4354    5.2360    3.9699 C   0  0  0  0  0  0  0  0  0  0  0  0
    5.7029    6.0528    4.8259 C   0  0  0  0  0  0  0  0  0  0  0  0
    6.2984    6.6808    5.9028 C   0  0  0  0  0  0  0  0  0  0  0  0
    7.6536    6.5157    6.1633 C   0  0  0  0  0  0  0  0  0  0  0  0
    8.5392    7.2323    7.5076 S   0  0  0  0  0  0  0  0  0  0  0  0
    7.4080    8.5050    8.1665 C   0  0  0  0  0  0  0  0  0  0  0  0
    7.2761    9.6963    7.2366 C   0  0  0  0  0  0  0  0  0  0  0  0
    8.3744    5.6846    5.3032 C   0  0  0  0  0  0  0  0  0  0  0  0
    9.6891    5.4884    5.5336 F   0  0  0  0  0  0  0  0  0  0  0  0
    7.7941    5.0546    4.2267 C   0  0  0  0  0  0  0  0  0  0  0  0
    4.6130    3.8557    2.9676 C   0  0  0  0  0  0  0  0  0  0  0  0
    3.9690    3.2119    1.8815 C   0  0  0  0  0  0  0  0  0  0  0  0
    4.5458    3.2296    0.6029 C   0  0  0  0  0  0  0  0  0  0  0  0
    3.8312    2.7637   -0.5880 C   0  0  0  0  0  0  0  0  0  0  0  0
    4.4322    1.9718   -1.5634 C   0  0  0  0  0  0  0  0  0  0  0  0
    3.7506    1.6412   -2.7150 C   0  0  0  0  0  0  0  0  0  0  0  0
    2.4595    2.1043   -2.9552 C   0  0  0  0  0  0  0  0  0  0  0  0
    1.7150    1.6794   -4.5006 S   0  0  0  0  0  0  0  0  0  0  0  0
   -0.0465    1.3963   -4.0789 C   0  0  0  0  0  0  0  0  0  0  0  0
   -0.2206    0.4298   -2.9267 C   0  0  0  0  0  0  0  0  0  0  0  0
    1.8787    2.9095   -1.9805 C   0  0  0  0  0  0  0  0  0  0  0  0
    2.5352    3.2220   -0.8098 C   0  0  0  0  0  0  0  0  0  0  0  0
    0.6438    3.4346   -2.1541 F   0  0  0  0  0  0  0  0  0  0  0  0
    5.7790    3.8469    0.4976 C   0  0  0  0  0  0  0  0  0  0  0  0
    6.6744    3.9732   -0.9784 S   0  0  0  0  0  0  0  0  0  0  0  0
    2.7950    2.5416    2.2700 C   0  0  0  0  0  0  0  0  0  0  0  0
    2.5077    2.6311    3.6080 C   0  0  0  0  0  0  0  0  0  0  0  0
    3.7068    3.6073    4.4467 S   0  0  0  0  0  0  0  0  0  0  0  0
    1.4059    1.9910    4.2221 C   0  0  0  0  0  0  0  0  0  0  0  0
    0.4187    0.9837    3.2055 S   0  0  0  0  0  0  0  0  0  0  0  0
   -0.6330    0.5203    4.5095 C   0  0  0  0  0  0  0  0  0  0  0  0
   -0.2275    1.1516    5.6992 C   0  0  0  0  0  0  0  0  0  0  0  0
    0.9257    1.9767    5.5368 C   0  0  0  0  0  0  0  0  0  0  0  0
    1.4414    2.6607    6.6560 C   0  0  0  0  0  0  0  0  0  0  0  0
    0.8514    2.5387    7.8805 C   0  0  0  0  0  0  0  0  0  0  0  0
    1.3768    3.2508    9.0848 C   0  0  0  0  0  0  0  0  0  0  0  0
   -0.3030    1.7101    8.0343 C   0  0  0  0  0  0  0  0  0  0  0  0
   -0.8010    1.6685    9.2994 O   0  0  0  0  0  0  0  0  0  0  0  0
   -1.9356    0.8776    9.5511 C   0  0  0  0  0  0  0  0  0  0  0  0
   -0.8296    1.0314    6.9641 C   0  0  0  0  0  0  0  0  0  0  0  0
   -1.6856   -0.3803    4.2843 C   0  0  0  0  0  0  0  0  0  0  0  0
   -1.9124   -0.9635    3.0685 C   0  0  0  0  0  0  0  0  0  0  0  0
   -2.9173   -1.8854    2.7555 C   0  0  0  0  0  0  0  0  0  0  0  0
   -4.1074   -2.4123    3.9071 S   0  0  0  0  0  0  0  0  0  0  0  0
   -4.8754   -3.4770    2.7648 C   0  0  0  0  0  0  0  0  0  0  0  0
   -4.2213   -3.4178    1.5205 C   0  0  0  0  0  0  0  0  0  0  0  0
   -3.1173   -2.5232    1.5145 C   0  0  0  0  0  0  0  0  0  0  0  0
   -2.3564   -2.3782    0.3397 C   0  0  0  0  0  0  0  0  0  0  0  0
   -2.6703   -3.0824   -0.7886 C   0  0  0  0  0  0  0  0  0  0  0  0
   -1.8711   -2.9619   -2.0452 C   0  0  0  0  0  0  0  0  0  0  0  0
   -3.7915   -3.9665   -0.7794 C   0  0  0  0  0  0  0  0  0  0  0  0
   -4.0166   -4.6039   -1.9613 O   0  0  0  0  0  0  0  0  0  0  0  0
   -5.0916   -5.5047   -2.0488 C   0  0  0  0  0  0  0  0  0  0  0  0
   -4.5489   -4.1317    0.3527 C   0  0  0  0  0  0  0  0  0  0  0  0
   -5.9837   -4.2714    3.1027 C   0  0  0  0  0  0  0  0  0  0  0  0
   -6.6000   -4.3054    4.3140 C   0  0  0  0  0  0  0  0  0  0  0  0
   -7.7101   -5.1389    4.6077 C   0  0  0  0  0  0  0  0  0  0  0  0
   -8.3444   -6.0506    3.8061 C   0  0  0  0  0  0  0  0  0  0  0  0
   -9.4224   -6.7182    4.4312 C   0  0  0  0  0  0  0  0  0  0  0  0
  -10.2582   -7.7055    3.8832 C   0  0  0  0  0  0  0  0  0  0  0  0
  -10.0217   -8.2155    2.5266 C   0  0  0  0  0  0  0  0  0  0  0  0
   -8.7633   -8.6946    2.1641 C   0  0  0  0  0  0  0  0  0  0  0  0
   -8.5225   -9.1372    0.8808 C   0  0  0  0  0  0  0  0  0  0  0  0
   -9.5237   -9.1207   -0.0861 C   0  0  0  0  0  0  0  0  0  0  0  0
   -9.1257   -9.7183   -1.7081 S   0  0  0  0  0  0  0  0  0  0  0  0
   -9.7812   -8.3924   -2.7879 C   0  0  0  0  0  0  0  0  0  0  0  0
   -9.1052   -7.0630   -2.5150 C   0  0  0  0  0  0  0  0  0  0  0  0
  -10.7855   -8.6808    0.3000 C   0  0  0  0  0  0  0  0  0  0  0  0
  -11.8085   -8.6754   -0.5812 F   0  0  0  0  0  0  0  0  0  0  0  0
  -11.0386   -8.2249    1.5783 C   0  0  0  0  0  0  0  0  0  0  0  0
  -11.2864   -8.1706    4.6888 C   0  0  0  0  0  0  0  0  0  0  0  0
  -11.4846   -7.7300    6.0197 C   0  0  0  0  0  0  0  0  0  0  0  0
  -10.6344   -6.7624    6.5761 C   0  0  0  0  0  0  0  0  0  0  0  0
  -10.7821   -6.3081    7.9650 C   0  0  0  0  0  0  0  0  0  0  0  0
  -10.8152   -7.2195    9.0188 C   0  0  0  0  0  0  0  0  0  0  0  0
  -10.9025   -6.7803   10.3226 C   0  0  0  0  0  0  0  0  0  0  0  0
  -10.9792   -5.4227   10.6266 C   0  0  0  0  0  0  0  0  0  0  0  0
  -11.1183   -4.9764   12.3333 S   0  0  0  0  0  0  0  0  0  0  0  0
  -10.0475   -3.4987   12.4879 C   0  0  0  0  0  0  0  0  0  0  0  0
   -8.6269   -3.7753   12.0387 C   0  0  0  0  0  0  0  0  0  0  0  0
  -10.9846   -4.5271    9.5619 C   0  0  0  0  0  0  0  0  0  0  0  0
  -10.8676   -4.9508    8.2539 C   0  0  0  0  0  0  0  0  0  0  0  0
  -11.1088   -3.1984    9.7753 F   0  0  0  0  0  0  0  0  0  0  0  0
   -9.6328   -6.2648    5.7578 C   0  0  0  0  0  0  0  0  0  0  0  0
   -8.4476   -5.0642    6.2018 S   0  0  0  0  0  0  0  0  0  0  0  0
  -12.6085   -8.3702    6.6219 C   0  0  0  0  0  0  0  0  0  0  0  0
  -13.2074   -9.2592    5.8044 C   0  0  0  0  0  0  0  0  0  0  0  0
  -12.4623   -9.3820    4.2462 S   0  0  0  0  0  0  0  0  0  0  0  0
    6.1420   -3.7282  -10.8511 H   0  0  0  0  0  0  0  0  0  0  0  0
    4.4387   -2.8635   -9.0768 H   0  0  0  0  0  0  0  0  0  0  0  0
    4.6063   -0.9902   -5.0761 H   0  0  0  0  0  0  0  0  0  0  0  0
    2.4451   -1.7192   -4.1626 H   0  0  0  0  0  0  0  0  0  0  0  0
   -0.0263   -3.8216   -7.0624 H   0  0  0  0  0  0  0  0  0  0  0  0
   -1.3986   -2.6992   -7.2388 H   0  0  0  0  0  0  0  0  0  0  0  0
   -2.2037   -4.9679   -6.5741 H   0  0  0  0  0  0  0  0  0  0  0  0
   -1.1705   -4.9199   -5.1391 H   0  0  0  0  0  0  0  0  0  0  0  0
   -2.5246   -3.7988   -5.2872 H   0  0  0  0  0  0  0  0  0  0  0  0
    2.8679   -0.8254   -8.9838 H   0  0  0  0  0  0  0  0  0  0  0  0
    8.6480    2.6376   -9.4969 H   0  0  0  0  0  0  0  0  0  0  0  0
   10.8379    3.2648  -10.3405 H   0  0  0  0  0  0  0  0  0  0  0  0
   12.6692    3.8783  -11.2381 H   0  0  0  0  0  0  0  0  0  0  0  0
   14.4202    3.6486  -11.1459 H   0  0  0  0  0  0  0  0  0  0  0  0
   14.3308    3.5961   -8.6695 H   0  0  0  0  0  0  0  0  0  0  0  0
   12.5785    3.7934   -8.6981 H   0  0  0  0  0  0  0  0  0  0  0  0
   13.6226    5.1036   -9.2624 H   0  0  0  0  0  0  0  0  0  0  0  0
   10.0351   -1.3600   -8.8348 H   0  0  0  0  0  0  0  0  0  0  0  0
    8.6859    2.5146   -7.0183 H   0  0  0  0  0  0  0  0  0  0  0  0
    4.2426    3.9740   -5.3463 H   0  0  0  0  0  0  0  0  0  0  0  0
    1.9665    5.5460   -3.1134 H   0  0  0  0  0  0  0  0  0  0  0  0
    2.2465    6.5324   -4.5331 H   0  0  0  0  0  0  0  0  0  0  0  0
    2.1170    4.7741   -4.7074 H   0  0  0  0  0  0  0  0  0  0  0  0
    4.9276    8.6382   -1.5202 H   0  0  0  0  0  0  0  0  0  0  0  0
    3.3707    8.3700   -0.6989 H   0  0  0  0  0  0  0  0  0  0  0  0
    4.7357    7.2636   -0.3960 H   0  0  0  0  0  0  0  0  0  0  0  0
    6.4268    6.9177   -1.9886 H   0  0  0  0  0  0  0  0  0  0  0  0
    9.9672    6.0391   -2.7383 H   0  0  0  0  0  0  0  0  0  0  0  0
    9.5999    6.2020   -0.4042 H   0  0  0  0  0  0  0  0  0  0  0  0
    8.0892    5.9615    1.7016 H   0  0  0  0  0  0  0  0  0  0  0  0
    4.6521    6.2145    4.6404 H   0  0  0  0  0  0  0  0  0  0  0  0
    5.6902    7.2990    6.5427 H   0  0  0  0  0  0  0  0  0  0  0  0
    7.8763    8.7980    9.1062 H   0  0  0  0  0  0  0  0  0  0  0  0
    6.4488    8.0394    8.3888 H   0  0  0  0  0  0  0  0  0  0  0  0
    6.8601    9.3994    6.2761 H   0  0  0  0  0  0  0  0  0  0  0  0
    6.6230   10.4442    7.6826 H   0  0  0  0  0  0  0  0  0  0  0  0
    8.2513   10.1451    7.0630 H   0  0  0  0  0  0  0  0  0  0  0  0
    8.3955    4.4070    3.6082 H   0  0  0  0  0  0  0  0  0  0  0  0
    5.4295    1.5915   -1.4062 H   0  0  0  0  0  0  0  0  0  0  0  0
    4.2130    1.0204   -3.4648 H   0  0  0  0  0  0  0  0  0  0  0  0
   -0.5201    2.3559   -3.8817 H   0  0  0  0  0  0  0  0  0  0  0  0
   -0.4532    0.9778   -4.9990 H   0  0  0  0  0  0  0  0  0  0  0  0
    0.2795   -0.5106   -3.1457 H   0  0  0  0  0  0  0  0  0  0  0  0
    0.1860    0.8384   -2.0040 H   0  0  0  0  0  0  0  0  0  0  0  0
   -1.2801    0.2336   -2.7776 H   0  0  0  0  0  0  0  0  0  0  0  0
    2.0450    3.8656   -0.0954 H   0  0  0  0  0  0  0  0  0  0  0  0
    2.1923    1.9714    1.5859 H   0  0  0  0  0  0  0  0  0  0  0  0
    2.3128    3.2861    6.5392 H   0  0  0  0  0  0  0  0  0  0  0  0
    2.2561    3.8371    8.8332 H   0  0  0  0  0  0  0  0  0  0  0  0
    0.6104    3.9069    9.4947 H   0  0  0  0  0  0  0  0  0  0  0  0
    1.6339    2.5313    9.8605 H   0  0  0  0  0  0  0  0  0  0  0  0
   -2.7989    1.2160    8.9690 H   0  0  0  0  0  0  0  0  0  0  0  0
   -1.7449   -0.1789    9.3365 H   0  0  0  0  0  0  0  0  0  0  0  0
   -2.1483    0.9965   10.6124 H   0  0  0  0  0  0  0  0  0  0  0  0
   -1.6992    0.4038    7.0669 H   0  0  0  0  0  0  0  0  0  0  0  0
   -2.3279   -0.6264    5.1185 H   0  0  0  0  0  0  0  0  0  0  0  0
   -1.2460   -0.7038    2.2560 H   0  0  0  0  0  0  0  0  0  0  0  0
   -1.5108   -1.7077    0.3283 H   0  0  0  0  0  0  0  0  0  0  0  0
   -2.4701   -2.5068   -2.8324 H   0  0  0  0  0  0  0  0  0  0  0  0
   -1.5756   -3.9484   -2.3959 H   0  0  0  0  0  0  0  0  0  0  0  0
   -0.9843   -2.3568   -1.8860 H   0  0  0  0  0  0  0  0  0  0  0  0
   -5.0699   -5.8903   -3.0672 H   0  0  0  0  0  0  0  0  0  0  0  0
   -6.0505   -5.0061   -1.8711 H   0  0  0  0  0  0  0  0  0  0  0  0
   -4.9790   -6.3362   -1.3453 H   0  0  0  0  0  0  0  0  0  0  0  0
   -5.3931   -4.8011    0.3672 H   0  0  0  0  0  0  0  0  0  0  0  0
   -6.3601   -4.9046    2.3119 H   0  0  0  0  0  0  0  0  0  0  0  0
   -6.2387   -3.6702    5.1112 H   0  0  0  0  0  0  0  0  0  0  0  0
   -8.0614   -6.2383    2.7869 H   0  0  0  0  0  0  0  0  0  0  0  0
   -7.9742   -8.7262    2.9002 H   0  0  0  0  0  0  0  0  0  0  0  0
   -7.5470   -9.5045    0.6013 H   0  0  0  0  0  0  0  0  0  0  0  0
   -9.5600   -8.7477   -3.7940 H   0  0  0  0  0  0  0  0  0  0  0  0
  -10.8598   -8.3348   -2.6612 H   0  0  0  0  0  0  0  0  0  0  0  0
   -8.0265   -7.1531   -2.6303 H   0  0  0  0  0  0  0  0  0  0  0  0
   -9.4710   -6.3138   -3.2144 H   0  0  0  0  0  0  0  0  0  0  0  0
   -9.3184   -6.7230   -1.5026 H   0  0  0  0  0  0  0  0  0  0  0  0
  -12.0296   -7.8738    1.8198 H   0  0  0  0  0  0  0  0  0  0  0  0
  -10.7368   -8.2761    8.8126 H   0  0  0  0  0  0  0  0  0  0  0  0
  -10.9082   -7.4866   11.1383 H   0  0  0  0  0  0  0  0  0  0  0  0
  -10.4968   -2.6760   11.9361 H   0  0  0  0  0  0  0  0  0  0  0  0
  -10.0868   -3.2748   13.5540 H   0  0  0  0  0  0  0  0  0  0  0  0
   -8.0081   -2.8995   12.2241 H   0  0  0  0  0  0  0  0  0  0  0  0
   -8.2111   -4.6199   12.5843 H   0  0  0  0  0  0  0  0  0  0  0  0
   -8.5919   -4.0004   10.9743 H   0  0  0  0  0  0  0  0  0  0  0  0
  -10.8735   -4.2127    7.4672 H   0  0  0  0  0  0  0  0  0  0  0  0
  -12.9468   -8.1529    7.6188 H   0  0  0  0  0  0  0  0  0  0  0  0
  -14.0662   -9.8686    6.0077 H   0  0  0  0  0  0  0  0  0  0  0  0
  1  2  2  0  0  0  0
  2  3  1  0  0  0  0
  3  4  2  0  0  0  0
  4  5  1  0  0  0  0
  5  6  2  0  0  0  0
  6  7  1  0  0  0  0
  7  8  2  0  0  0  0
  8  9  1  0  0  0  0
  9 10  1  0  0  0  0
 10 11  1  0  0  0  0
  8 12  1  0  0  0  0
 12 13  1  0  0  0  0
 12 14  2  0  0  0  0
  4 15  1  0  0  0  0
 15 16  2  0  0  0  0
 16 17  1  0  0  0  0
 17 18  1  0  0  0  0
 18 19  2  0  0  0  0
 19 20  1  0  0  0  0
 20 21  2  0  0  0  0
 21 22  1  0  0  0  0
 22 23  1  0  0  0  0
 23 24  1  0  0  0  0
 21 25  1  0  0  0  0
 25 26  2  0  0  0  0
 25 27  1  0  0  0  0
 17 28  2  0  0  0  0
 28 29  1  0  0  0  0
 16 30  1  0  0  0  0
 30 31  2  0  0  0  0
 31 32  1  0  0  0  0
 31 33  1  0  0  0  0
 33 34  1  0  0  0  0
 34 35  1  0  0  0  0
 35 36  2  0  0  0  0
 36 37  1  0  0  0  0
 37 38  1  0  0  0  0
 38 39  2  0  0  0  0
 39 40  1  0  0  0  0
 39 41  1  0  0  0  0
 41 42  1  0  0  0  0
 42 43  1  0  0  0  0
 41 44  2  0  0  0  0
 35 45  1  0  0  0  0
 45 46  2  0  0  0  0
 46 47  1  0  0  0  0
 47 48  2  0  0  0  0
 48 49  1  0  0  0  0
 49 50  2  0  0  0  0
 50 51  1  0  0  0  0
 51 52  2  0  0  0  0
 52 53  1  0  0  0  0
 53 54  2  0  0  0  0
 54 55  1  0  0  0  0
 55 56  1  0  0  0  0
 56 57  1  0  0  0  0
 54 58  1  0  0  0  0
 58 59  1  0  0  0  0
 58 60  2  0  0  0  0
 50 61  1  0  0  0  0
 61 62  2  0  0  0  0
 62 63  1  0  0  0  0
 63 64  1  0  0  0  0
 64 65  2  0  0  0  0
 65 66  1  0  0  0  0
 66 67  2  0  0  0  0
 67 68  1  0  0  0  0
 68 69  1  0  0  0  0
 69 70  1  0  0  0  0
 67 71  1  0  0  0  0
 71 72  2  0  0  0  0
 71 73  1  0  0  0  0
 63 74  2  0  0  0  0
 74 75  1  0  0  0  0
 62 76  1  0  0  0  0
 76 77  2  0  0  0  0
 77 78  1  0  0  0  0
 77 79  1  0  0  0  0
 79 80  1  0  0  0  0
 80 81  1  0  0  0  0
 81 82  2  0  0  0  0
 82 83  1  0  0  0  0
 83 84  1  0  0  0  0
 84 85  2  0  0  0  0
 85 86  1  0  0  0  0
 85 87  1  0  0  0  0
 87 88  1  0  0  0  0
 88 89  1  0  0  0  0
 87 90  2  0  0  0  0
 81 91  1  0  0  0  0
 91 92  2  0  0  0  0
 92 93  1  0  0  0  0
 93 94  1  0  0  0  0
 94 95  1  0  0  0  0
 95 96  2  0  0  0  0
 96 97  1  0  0  0  0
 97 98  1  0  0  0  0
 98 99  2  0  0  0  0
 99100  1  0  0  0  0
 99101  1  0  0  0  0
101102  1  0  0  0  0
102103  1  0  0  0  0
101104  2  0  0  0  0
 95105  1  0  0  0  0
105106  2  0  0  0  0
106107  1  0  0  0  0
107108  2  0  0  0  0
108109  1  0  0  0  0
109110  2  0  0  0  0
110111  1  0  0  0  0
111112  2  0  0  0  0
112113  1  0  0  0  0
113114  2  0  0  0  0
114115  1  0  0  0  0
115116  1  0  0  0  0
116117  1  0  0  0  0
114118  1  0  0  0  0
118119  1  0  0  0  0
118120  2  0  0  0  0
110121  1  0  0  0  0
121122  2  0  0  0  0
122123  1  0  0  0  0
123124  1  0  0  0  0
124125  2  0  0  0  0
125126  1  0  0  0  0
126127  2  0  0  0  0
127128  1  0  0  0  0
128129  1  0  0  0  0
129130  1  0  0  0  0
127131  1  0  0  0  0
131132  2  0  0  0  0
131133  1  0  0  0  0
123134  2  0  0  0  0
134135  1  0  0  0  0
122136  1  0  0  0  0
136137  2  0  0  0  0
137138  1  0  0  0  0
 29  1  1  0  0  0  0
 37 33  2  0  0  0  0
 75 47  1  0  0  0  0
 83 79  2  0  0  0  0
 97 93  2  0  0  0  0
135107  1  0  0  0  0
 28  3  1  0  0  0  0
 44 36  1  0  0  0  0
 74 49  1  0  0  0  0
 90 82  1  0  0  0  0
104 96  1  0  0  0  0
134109  1  0  0  0  0
 14  5  1  0  0  0  0
 32 15  1  0  0  0  0
 60 51  1  0  0  0  0
 78 61  1  0  0  0  0
120111  1  0  0  0  0
138121  1  0  0  0  0
 26 18  1  0  0  0  0
 72 64  1  0  0  0  0
132124  1  0  0  0  0
  1139  1  0  0  0  0
  2140  1  0  0  0  0
  6141  1  0  0  0  0
  7142  1  0  0  0  0
 10143  1  0  0  0  0
 10144  1  0  0  0  0
 11145  1  0  0  0  0
 11146  1  0  0  0  0
 11147  1  0  0  0  0
 14148  1  0  0  0  0
 19149  1  0  0  0  0
 20150  1  0  0  0  0
 23151  1  0  0  0  0
 23152  1  0  0  0  0
 24153  1  0  0  0  0
 24154  1  0  0  0  0
 24155  1  0  0  0  0
 26156  1  0  0  0  0
 30157  1  0  0  0  0
 38158  1  0  0  0  0
 40159  1  0  0  0  0
 40160  1  0  0  0  0
 40161  1  0  0  0  0
 43162  1  0  0  0  0
 43163  1  0  0  0  0
 43164  1  0  0  0  0
 44165  1  0  0  0  0
 45166  1  0  0  0  0
 46167  1  0  0  0  0
 48168  1  0  0  0  0
 52169  1  0  0  0  0
 53170  1  0  0  0  0
 56171  1  0  0  0  0
 56172  1  0  0  0  0
 57173  1  0  0  0  0
 57174  1  0  0  0  0
 57175  1  0  0  0  0
 60176  1  0  0  0  0
 65177  1  0  0  0  0
 66178  1  0  0  0  0
 69179  1  0  0  0  0
 69180  1  0  0  0  0
 70181  1  0  0  0  0
 70182  1  0  0  0  0
 70183  1  0  0  0  0
 72184  1  0  0  0  0
 76185  1  0  0  0  0
 84186  1  0  0  0  0
 86187  1  0  0  0  0
 86188  1  0  0  0  0
 86189  1  0  0  0  0
 89190  1  0  0  0  0
 89191  1  0  0  0  0
 89192  1  0  0  0  0
 90193  1  0  0  0  0
 91194  1  0  0  0  0
 92195  1  0  0  0  0
 98196  1  0  0  0  0
100197  1  0  0  0  0
100198  1  0  0  0  0
100199  1  0  0  0  0
103200  1  0  0  0  0
103201  1  0  0  0  0
103202  1  0  0  0  0
104203  1  0  0  0  0
105204  1  0  0  0  0
106205  1  0  0  0  0
108206  1  0  0  0  0
112207  1  0  0  0  0
113208  1  0  0  0  0
116209  1  0  0  0  0
116210  1  0  0  0  0
117211  1  0  0  0  0
117212  1  0  0  0  0
117213  1  0  0  0  0
120214  1  0  0  0  0
125215  1  0  0  0  0
126216  1  0  0  0  0
129217  1  0  0  0  0
129218  1  0  0  0  0
130219  1  0  0  0  0
130220  1  0  0  0  0
130221  1  0  0  0  0
132222  1  0  0  0  0
136223  1  0  0  0  0
137224  1  0  0  0  0
M  END
