250

C         -1.88010       -6.22530       11.33170
C         -1.02580       -6.23670       10.28850
C         -1.53250       -5.54920        9.14500
C         -0.92270       -5.37650        7.89090
C          0.48710       -5.70700        7.65670
C          0.91780       -6.30830        6.47520
C          2.26220       -6.49250        6.22340
C          3.22070       -6.08620        7.14300
S          4.95750       -6.25680        6.83300
C          5.07990       -5.40850        5.21870
C          4.62540       -3.96590        5.30220
C          2.78110       -5.52930        8.33980
F          3.67610       -5.13780        9.26510
C          1.44190       -5.32820        8.59900
C         -1.69330       -4.77080        6.90620
C         -2.98850       -4.25410        7.15320
C         -3.57030       -4.36590        8.42520
C         -4.87370       -3.74390        8.69230
C         -5.97410       -3.99430        7.87280
C         -7.15020       -3.29670        8.04390
C         -7.28180       -2.33350        9.04240
S         -8.81950       -1.46260        9.13460
C         -8.32470        0.26220        9.50710
C         -7.38200        0.82920        8.46510
C         -6.20490       -2.15610        9.90570
C         -5.01380       -2.83300        9.73320
F         -6.28220       -1.29050       10.93910
C         -2.82940       -5.03400        9.38770
S         -3.35550       -5.37940       11.01410
C         -3.52310       -3.59330        6.01910
C         -2.70350       -3.62210        4.93200
S         -1.19960       -4.45460        5.26090
C         -2.97970       -3.05040        3.65300
C         -3.96590       -2.15590        3.36400
C         -3.98130       -1.74510        2.00870
C         -4.80310       -0.76830        1.42410
C         -5.80970       -0.06870        2.23250
C         -5.46690        0.54360        3.43750
C         -6.43830        1.08760        4.24980
C         -7.78370        1.05270        3.89000
S         -8.95260        1.74240        5.02710
C        -10.33390        0.53850        5.00360
C         -9.88650       -0.85720        5.38900
C         -8.10170        0.51060        2.64850
F         -9.37770        0.50060        2.20650
C         -7.14120       -0.05380        1.83280
C         -4.59790       -0.51450        0.07970
C         -3.65760       -1.22580       -0.71210
C         -2.82860       -2.20300       -0.12670
C         -1.78920       -2.91940       -0.87660
C         -1.57570       -4.28330       -0.67780
C         -0.55390       -4.95910       -1.31650
C          0.28650       -4.30010       -2.20570
S          1.63010       -5.00440       -3.09710
C          1.91050       -6.61950       -2.29450
C          2.52790       -6.46740       -0.91850
C          0.02760       -2.94940       -2.43990
C         -0.96230       -2.25600       -1.78450
F          0.78140       -2.29990       -3.35020
C         -3.00610       -2.41810        1.23420
S         -2.04080       -3.47180        2.23890
C         -3.63650       -0.73910       -2.04080
C         -4.41960        0.36280       -2.23740
S         -5.35180        0.77490       -0.81940
C         -4.28090        1.24640       -3.35350
C         -3.71750        0.94670       -4.55810
C         -3.24090        2.08270       -5.25400
C         -2.41270        2.07010       -6.38880
C         -2.18650        0.82740       -7.13880
C         -3.26010        0.12030       -7.67060
C         -3.06380       -1.04400       -8.38860
C         -1.78340       -1.54400       -8.59600
S         -1.39320       -3.02050       -9.47620
C         -2.90090       -3.37210      -10.44470
C         -3.12740       -2.35520      -11.54700
C         -0.71830       -0.83860       -8.03300
F          0.53470       -1.30740       -8.19260
C         -0.90070        0.32400       -7.31930
C         -1.73740        3.24270       -6.66310
C         -1.91870        4.43760       -5.92190
C         -2.86940        4.48830       -4.88380
C         -3.09630        5.74510       -4.16160
C         -3.07210        5.81980       -2.77000
C         -3.28380        7.02190       -2.12850
C         -3.51960        8.19440       -2.84160
S         -3.73590        9.69250       -1.92220
C         -5.16150       10.49070       -2.74980
C         -6.39190        9.60630       -2.73190
C         -3.50960        8.11230       -4.23050
C         -3.31370        6.91490       -4.88610
F         -3.68670        9.21690       -4.99080
C         -3.46760        3.28440       -4.53860
S         -4.41210        2.97800       -3.10350
C         -0.89130        5.38090       -6.17500
C          0.06280        4.92840       -7.05000
S         -0.41380        3.40120       -7.79020
C          1.43300        5.29140       -7.11470
S          2.54670        4.01880       -7.50670
C          3.85040        4.76010       -6.62020
C          3.48440        6.05790       -6.23120
C          2.11520        6.35960       -6.51470
C          1.60600        7.62640       -6.16960
C          2.40190        8.56070       -5.57120
C          1.89360        9.91830       -5.20940
C          3.77130        8.25430       -5.29670
O          4.46940        9.26990       -4.72130
C          5.83070        9.07270       -4.43160
C          4.29910        7.03050       -5.62230
C          4.84210        3.84610       -6.19910
C          5.58840        3.89610       -5.06180
C          6.15100        2.74630       -4.45190
S          7.45460        2.93050       -3.31940
C          7.44340        1.24990       -2.87740
C          6.49610        0.55960       -3.63750
C          5.73350        1.40530       -4.49880
C          4.63100        0.83970       -5.17820
C          4.35650       -0.49500       -5.10170
C          3.18630       -1.10540       -5.79950
C          5.21130       -1.35090       -4.33620
O          4.86040       -2.66270       -4.35600
C          5.54860       -3.56030       -3.52530
C          6.25830       -0.83200       -3.62300
C          8.36150        0.78390       -1.89060
C          8.16670       -0.17140       -0.95190
C          6.94790       -0.80900       -0.55700
C          6.85470       -1.95470        0.18420
C          5.52670       -2.33690        0.50110
C          5.08850       -3.45280        1.23380
C          6.03920       -4.40510        1.82000
C          7.11120       -3.97520        2.60200
C          7.98660       -4.88470        3.15350
C          7.84930       -6.25780        2.93840
S          9.07410       -7.29360        3.67580
C          8.23220       -8.87690        4.04310
C          7.03490       -8.70180        4.95430
C          6.79260       -6.66780        2.13140
F          6.60910       -7.97330        1.82790
C          5.89090       -5.76980        1.59760
C          3.71560       -3.60740        1.36930
C          2.76820       -2.72510        0.79550
C          3.20530       -1.61590        0.05510
C          2.27290       -0.70020       -0.61840
C          2.45970       -0.40690       -1.96770
C          1.57960        0.41350       -2.64270
C          0.50020        0.98600       -1.98550
S         -0.67660        1.99290       -2.87610
C          0.25990        3.56040       -3.01330
C          1.43760        3.48880       -3.96390
C          0.32580        0.69950       -0.63620
C          1.19240       -0.13070        0.04940
F         -0.72010        1.22360        0.03450
C          4.57820       -1.44330       -0.05630
S          5.36410       -0.11940       -0.87400
C          1.43070       -3.13860        1.07630
C          1.36820       -4.23750        1.85320
S          2.92150       -4.86810        2.28310
H         -1.74450       -6.67050       12.29800
H         -0.07590       -6.73920       10.30510
H          0.19420       -6.65090        5.75210
H          2.57570       -6.95170        5.29860
H          4.50780       -5.96450        4.47690
H          6.13880       -5.46780        4.97200
H          4.81460       -3.46820        4.35360
H          5.16820       -3.44300        6.08640
H          3.55960       -3.90910        5.51650
H          1.15560       -4.83600        9.51520
H         -5.90080       -4.73920        7.09490
H         -7.99220       -3.47510        7.39270
H         -9.27400        0.79780        9.50930
H         -7.89730        0.29550       10.50680
H         -7.14800        1.86230        8.71380
H         -7.83810        0.80850        7.47780
H         -6.45160        0.26430        8.43270
H         -4.19730       -2.62690       10.40750
H         -4.48440       -3.11490        6.01590
H         -4.65590       -1.78520        4.09870
H         -4.43030        0.59210        3.73420
H         -6.17260        1.54280        5.19160
H        -11.03150        0.94340        5.73650
H        -10.80000        0.56090        4.02100
H        -10.74440       -1.52640        5.38510
H         -9.15010       -1.23780        4.68260
H         -9.45020       -0.86370        6.38550
H         -7.44590       -0.49120        0.89470
H         -2.23110       -4.83680       -0.02360
H         -0.42840       -6.01200       -1.12300
H          2.59390       -7.12830       -2.97460
H          0.97120       -7.17000       -2.27240
H          1.85090       -5.94350       -0.24750
H          2.74990       -7.44600       -0.49680
H          3.45170       -5.89590       -0.98730
H         -1.06110       -1.19930       -1.96820
H         -3.01900       -1.14380       -2.81940
H         -3.56230       -0.05800       -4.90690
H         -4.26350        0.49450       -7.53080
H         -3.92280       -1.56310       -8.78190
H         -2.70820       -4.36030      -10.86250
H         -3.74780       -3.44490       -9.76340
H         -2.27090       -2.33190      -12.21650
H         -4.01210       -2.62240      -12.12190
H         -3.26750       -1.35760      -11.13580
H         -0.04210        0.81850       -6.89500
H         -2.87340        4.93510       -2.18610
H         -3.26720        7.07390       -1.05110
H         -4.87340       10.76930       -3.76100
H         -5.31790       11.39590       -2.16320
H         -6.64580        9.32560       -1.71190
H         -7.23370       10.14050       -3.16800
H         -6.22500        8.69760       -3.30780
H         -3.33440        6.90160       -5.96520
H         -0.77960        6.28150       -5.59980
H          0.58480        7.87110       -6.41790
H          0.84560       10.02430       -5.47570
H          2.47420       10.68350       -5.72210
H          2.01060       10.08730       -4.14000
H          6.17410       10.00270       -3.98150
H          6.41050        8.87430       -5.33890
H          5.97610        8.25210       -3.72140
H          5.33900        6.80290       -5.45870
H          4.85840        2.92560       -6.76570
H          5.71140        4.82690       -4.52650
H          3.96640        1.47170       -5.74400
H          2.62810       -0.35820       -6.35600
H          2.52670       -1.59100       -5.08220
H          3.52290       -1.87620       -6.49020
H          5.04560       -4.51770       -3.65210
H          5.49420       -3.25940       -2.47270
H          6.59970       -3.65980       -3.81610
H          6.90900       -1.45830       -3.03510
H          9.32460        1.28160       -1.89260
H          9.02500       -0.47620       -0.36550
H          7.71750       -2.53080        0.46800
H          7.23590       -2.92260        2.80580
H          8.80380       -4.54850        3.77290
H          9.01610       -9.45520        4.53310
H          7.96710       -9.36250        3.10640
H          6.65180       -9.67840        5.24240
H          7.30770       -8.15660        5.85530
H          6.23790       -8.15910        4.45180
H          5.09190       -6.14960        0.98020
H          3.27130       -0.86260       -2.51110
H          1.70830        0.58300       -3.69890
H         -0.48490        4.27040       -3.37220
H          0.56890        3.84390       -2.00740
H          1.83290        4.49010       -4.12820
H          1.12420        3.08050       -4.92240
H          2.23510        2.86850       -3.56020
H          1.02430       -0.31300        1.09960
H          0.56050       -2.63340        0.70000
H          0.49380       -4.73840        2.21900
