201

C          0.84210        0.78080        7.94040
C          1.48240        1.97810        7.67320
O          2.27570        2.63820        8.58330
C          2.58800        2.03650        9.82170
C          3.62630        0.92510        9.69610
C          1.31000        2.57920        6.41290
O          1.86440        3.74760        5.96940
C          2.20880        4.79360        6.85610
C          1.00540        5.35920        7.60320
C          0.54640        1.89430        5.45260
O          0.42340        2.43840        4.18920
C         -0.54470        3.47230        4.08450
C         -0.50660        4.02140        2.66810
C         -0.05370        0.68010        5.72510
C          0.07330        0.10620        6.98660
C         -0.64080       -1.07590        7.41950
C         -1.21810       -2.09040        6.74120
C         -1.17160       -2.51820        5.38170
S          0.13200       -2.23000        4.27480
C         -0.52160       -3.29130        3.07110
C         -1.74890       -3.81430        3.49850
C         -2.10320       -3.39780        4.81440
C         -3.31200       -3.86010        5.37850
C         -4.14140       -4.68570        4.67950
C         -5.43300       -5.18200        5.24720
C         -3.78670       -5.08540        3.35350
O         -4.70300       -5.89810        2.74740
C         -4.44590       -6.33380        1.43790
C         -2.61950       -4.66160        2.77920
C          0.17180       -3.70770        1.89630
C          1.34810       -3.28640        1.39840
C          2.13400       -2.14800        1.85520
C          3.50130       -2.34510        2.09820
O          3.92010       -3.64090        1.94330
C          5.20110       -3.92030        1.40760
C          5.40560       -3.30500        0.02660
C          4.30160       -1.28250        2.54670
O          5.62280       -1.54420        2.80850
C          6.60140       -0.53610        2.60790
C          7.91850       -1.22250        2.26800
C          3.69850       -0.02900        2.74850
O          4.48770        1.01370        3.19070
C          4.03400        1.71030        4.34040
C          4.06700        0.82770        5.58360
C          2.36110        0.16770        2.44510
C          1.56750       -0.86960        1.97180
C          0.22870       -0.61850        1.46000
C         -0.59830        0.32120        1.92540
C         -1.89020        0.66470        1.34880
C         -2.96200        0.92260        2.23170
O         -2.66940        0.73790        3.55240
C         -3.66970        0.34180        4.47680
C         -4.44810       -0.88740        4.02710
C         -4.19260        1.34850        1.73740
O         -5.24800        1.65340        2.58310
C         -5.49860        3.04240        2.72400
C         -6.71920        3.21100        3.61340
C         -4.38300        1.45780        0.34610
O         -5.62220        1.89010       -0.03770
C         -5.97470        1.87290       -1.40360
C         -6.21150        0.46400       -1.93960
C         -3.33850        1.17740       -0.51120
C         -2.08460        0.79130       -0.03210
C         -0.98780        0.62550       -0.97800
C         -1.15610        0.22530       -2.24350
C         -0.16300        0.19630       -3.31210
C          1.18520       -0.16750       -3.09850
O          1.46550       -0.55870       -1.82910
C          2.78430       -0.71220       -1.33300
C          3.51410        0.61660       -1.18910
C          2.07050       -0.18820       -4.18030
O          3.39930       -0.52890       -4.01070
C          3.86060       -1.66860       -4.72170
C          5.19100       -1.35310       -5.38780
C          1.63130        0.19350       -5.46370
O          2.60470        0.23080       -6.42300
C          2.24830        0.43200       -7.77290
C          1.63410       -0.81300       -8.40690
C          0.30160        0.50060       -5.67050
C         -0.59770        0.48250       -4.61060
C         -1.99410        0.84150       -4.87650
C         -2.72400        0.39040       -5.89980
C         -2.31700       -0.60970       -6.88970
C         -2.59100       -0.35470       -8.24070
O         -3.25730        0.79380       -8.61570
C         -2.48900        1.98430       -8.59430
C         -1.35270        1.97300       -9.61020
C         -2.23070       -1.25590       -9.24530
O         -2.45830       -0.88210      -10.54410
C         -3.25000       -1.74880      -11.34010
C         -4.65220       -1.93140      -10.77040
C         -1.59680       -2.46100       -8.88880
O         -1.24220       -3.29560       -9.90870
C         -0.51920       -4.47280       -9.61280
C         -0.19320       -5.15420      -10.93270
C         -1.36020       -2.72430       -7.54970
C         -1.70640       -1.82260       -6.54570
C         -1.47990       -2.18250       -5.14810
C         -0.46370       -2.90740       -4.70100
H          0.93930        0.32790        8.91450
H          2.99630        2.85820       10.41820
H          1.68110        1.67340       10.32050
H          3.85580        0.52710       10.68080
H          3.26080        0.12020        9.06350
H          4.53790        1.31990        9.25420
H          2.97600        4.47180        7.56530
H          2.63320        5.55640        6.19600
H          0.24100        5.68430        6.90030
H          1.31620        6.20990        8.20340
H          0.57880        4.60480        8.25940
H         -0.32060        4.26750        4.80690
H         -1.53880        3.06040        4.31160
H         -0.76500        3.24230        1.95610
H         -1.21510        4.84000        2.57160
H          0.49240        4.38540        2.44280
H         -0.65350        0.22000        4.95930
H         -0.77240       -1.11360        8.49580
H         -1.81700       -2.76130        7.34930
H         -3.59180       -3.54340        6.37200
H         -5.57580       -4.81780        6.26110
H         -5.44710       -6.27070        5.25130
H         -6.26400       -4.84970        4.62680
H         -4.37090       -5.49250        0.74070
H         -5.29580       -6.95600        1.16070
H         -3.52890       -6.93060        1.38450
H         -2.35510       -4.94950        1.77510
H         -0.30090       -4.54330        1.39450
H          1.78940       -3.85810        0.59200
H          5.21790       -5.01240        1.33970
H          5.98980       -3.59480        2.09140
H          4.61500       -3.62570       -0.64850
H          6.36440       -3.61870       -0.37820
H          5.38430       -2.21930        0.08640
H          6.71830        0.05960        3.52000
H          6.29700        0.13400        1.79750
H          8.70400       -0.47780        2.17250
H          8.18600       -1.92020        3.05740
H          7.83430       -1.77090        1.33320
H          3.02900        2.11440        4.19070
H          4.73640        2.54180        4.44200
H          3.30980        0.04910        5.51160
H          5.04390        0.35870        5.68620
H          3.86980        1.42940        6.46460
H          1.93450        1.15100        2.55990
H         -0.08350       -1.25220        0.63990
H         -0.32600        0.87690        2.81000
H         -4.35700        1.16660        4.69130
H         -3.09820        0.11580        5.38350
H         -5.14750       -0.62770        3.23800
H         -5.00270       -1.29350        4.86810
H         -3.76310       -1.64740        3.65950
H         -5.67980        3.49410        1.74110
H         -4.62050        3.53300        3.17460
H         -7.57290        2.71700        3.15820
H         -6.54030        2.76300        4.58780
H         -6.94120        4.26690        3.74120
H         -6.90550        2.44620       -1.44580
H         -5.22180        2.39780       -2.00600
H         -5.30600       -0.13360       -1.87020
H         -6.52440        0.51490       -2.97910
H         -6.98940       -0.02420       -1.35790
H         -3.46100        1.30470       -1.57350
H         -0.00410        0.87980       -0.61530
H         -2.14860       -0.06710       -2.56430
H          2.63120       -1.15730       -0.34690
H          3.36620       -1.40430       -1.94530
H          2.92090        1.30080       -0.58740
H          3.69440        1.05680       -2.16600
H          4.46710        0.45450       -0.69320
H          3.12490       -1.98270       -5.46750
H          3.98670       -2.49190       -3.99950
H          5.90870       -1.02770       -4.63970
H          5.57440       -2.23620       -5.89250
H          5.05230       -0.55380       -6.10980
H          3.19310        0.67570       -8.26820
H          1.57760        1.29370       -7.87470
H          0.72960       -1.10650       -7.87850
H          2.34430       -1.63610       -8.36470
H          1.38510       -0.61720       -9.44640
H         -0.06010        0.78020       -6.64570
H         -2.43360        1.56400       -4.20050
H         -3.71470        0.79830       -6.06450
H         -2.09220        2.16220       -7.58400
H         -3.20580        2.77380       -8.83400
H         -1.74330        1.74250      -10.59740
H         -0.86530        2.94450       -9.62950
H         -0.61990        1.21160       -9.35130
H         -3.29400       -1.24860      -12.31120
H         -2.75670       -2.71930      -11.46040
H         -4.60910       -2.47010       -9.82560
H         -5.10750       -0.96030      -10.59110
H         -5.26620       -2.49280      -11.46960
H         -1.12190       -5.14000       -8.98070
H          0.40620       -4.21990       -9.07720
H         -1.11000       -5.41490      -11.45460
H          0.38140       -6.05780      -10.75000
H          0.38500       -4.48350      -11.56240
H         -0.91110       -3.65830       -7.25420
H         -2.21690       -1.81170       -4.44940
H         -0.35780       -3.14300       -3.65670
H          0.31780       -3.26390       -5.35140
