
  xtb     03042203143D
 energy: -179.892303633405 gnorm: 0.000338715606 xtb: 6.4.1 (unknown)
106117  0     0  0            999 V2000
    2.6100   -3.5492    5.4875 C   0  0  0  0  0  0  0  0  0  0  0  0
    1.0978   -3.4576    4.7034 S   0  0  0  0  0  0  0  0  0  0  0  0
    0.7452   -1.8967    5.3919 C   0  0  0  0  0  0  0  0  0  0  0  0
    1.8044   -1.4834    6.2134 C   0  0  0  0  0  0  0  0  0  0  0  0
    2.8696   -2.4370    6.2598 C   0  0  0  0  0  0  0  0  0  0  0  0
    4.0148   -2.1633    7.0449 C   0  0  0  0  0  0  0  0  0  0  0  0
    4.1076   -1.0026    7.7502 C   0  0  0  0  0  0  0  0  0  0  0  0
    5.2983   -0.6755    8.5937 C   0  0  0  0  0  0  0  0  0  0  0  0
    3.0383   -0.0500    7.6946 C   0  0  0  0  0  0  0  0  0  0  0  0
    3.2513    1.0722    8.4385 O   0  0  0  0  0  0  0  0  0  0  0  0
    2.2624    2.0700    8.4479 C   0  0  0  0  0  0  0  0  0  0  0  0
    1.9153   -0.2858    6.9449 C   0  0  0  0  0  0  0  0  0  0  0  0
   -0.4472   -1.2048    5.1109 C   0  0  0  0  0  0  0  0  0  0  0  0
   -1.3737   -1.6126    4.1975 C   0  0  0  0  0  0  0  0  0  0  0  0
   -2.5665   -0.9584    3.8429 C   0  0  0  0  0  0  0  0  0  0  0  0
   -3.2753   -1.3898    2.3133 S   0  0  0  0  0  0  0  0  0  0  0  0
   -4.5267   -0.1923    2.4213 C   0  0  0  0  0  0  0  0  0  0  0  0
   -4.4306    0.4755    3.6654 C   0  0  0  0  0  0  0  0  0  0  0  0
   -3.3324    0.0473    4.4633 C   0  0  0  0  0  0  0  0  0  0  0  0
   -3.1701    0.6041    5.7461 C   0  0  0  0  0  0  0  0  0  0  0  0
   -4.0085    1.5823    6.2030 C   0  0  0  0  0  0  0  0  0  0  0  0
   -3.8566    2.1842    7.5639 C   0  0  0  0  0  0  0  0  0  0  0  0
   -5.0666    2.0481    5.3707 C   0  0  0  0  0  0  0  0  0  0  0  0
   -5.8256    3.0383    5.9178 O   0  0  0  0  0  0  0  0  0  0  0  0
   -6.9053    3.5465    5.1757 C   0  0  0  0  0  0  0  0  0  0  0  0
   -5.2764    1.4963    4.1306 C   0  0  0  0  0  0  0  0  0  0  0  0
   -5.5543   -0.0166    1.4808 C   0  0  0  0  0  0  0  0  0  0  0  0
   -5.6651   -0.3798    0.1603 C   0  0  0  0  0  0  0  0  0  0  0  0
   -4.7044   -0.7869   -0.7748 C   0  0  0  0  0  0  0  0  0  0  0  0
   -2.9937   -0.6758   -0.5328 S   0  0  0  0  0  0  0  0  0  0  0  0
   -2.5970   -1.1814   -2.1540 C   0  0  0  0  0  0  0  0  0  0  0  0
   -3.7880   -1.4263   -2.8770 C   0  0  0  0  0  0  0  0  0  0  0  0
   -4.9654   -1.2022   -2.1038 C   0  0  0  0  0  0  0  0  0  0  0  0
   -6.2256   -1.4200   -2.6739 C   0  0  0  0  0  0  0  0  0  0  0  0
   -6.3190   -1.8513   -3.9754 C   0  0  0  0  0  0  0  0  0  0  0  0
   -7.9272   -2.1060   -4.6650 S   0  0  0  0  0  0  0  0  0  0  0  0
   -5.1623   -2.0971   -4.7346 C   0  0  0  0  0  0  0  0  0  0  0  0
   -3.9220   -1.8921   -4.1957 C   0  0  0  0  0  0  0  0  0  0  0  0
   -1.2601   -1.2538   -2.5635 C   0  0  0  0  0  0  0  0  0  0  0  0
   -0.8324   -1.2744   -4.2549 S   0  0  0  0  0  0  0  0  0  0  0  0
    0.8795   -1.2996   -3.9397 C   0  0  0  0  0  0  0  0  0  0  0  0
    1.1169   -1.2408   -2.5576 C   0  0  0  0  0  0  0  0  0  0  0  0
   -0.0806   -1.2465   -1.7780 C   0  0  0  0  0  0  0  0  0  0  0  0
    0.0245   -1.2584   -0.3796 C   0  0  0  0  0  0  0  0  0  0  0  0
    1.2592   -1.1681    0.2166 C   0  0  0  0  0  0  0  0  0  0  0  0
    1.3319   -1.1820    1.9817 S   0  0  0  0  0  0  0  0  0  0  0  0
    2.4296   -1.0352   -0.5538 C   0  0  0  0  0  0  0  0  0  0  0  0
    2.3605   -1.0775   -1.9161 C   0  0  0  0  0  0  0  0  0  0  0  0
    1.7783   -1.3404   -5.0220 C   0  0  0  0  0  0  0  0  0  0  0  0
    1.3506   -0.5589   -6.5153 S   0  0  0  0  0  0  0  0  0  0  0  0
    2.8618   -0.9506   -7.2886 C   0  0  0  0  0  0  0  0  0  0  0  0
    3.6626   -1.7007   -6.4070 C   0  0  0  0  0  0  0  0  0  0  0  0
    3.0393   -1.9460   -5.1428 C   0  0  0  0  0  0  0  0  0  0  0  0
    3.6495   -2.8090   -4.2171 C   0  0  0  0  0  0  0  0  0  0  0  0
    4.8911   -3.3227   -4.4889 C   0  0  0  0  0  0  0  0  0  0  0  0
    5.6328   -4.4066   -3.3046 S   0  0  0  0  0  0  0  0  0  0  0  0
    5.5648   -2.9860   -5.6801 C   0  0  0  0  0  0  0  0  0  0  0  0
    4.9605   -2.2059   -6.6228 C   0  0  0  0  0  0  0  0  0  0  0  0
    3.0995   -0.5797   -8.6305 C   0  0  0  0  0  0  0  0  0  0  0  0
    4.3142   -1.3877   -9.5876 S   0  0  0  0  0  0  0  0  0  0  0  0
    3.9384   -0.4951  -10.9911 C   0  0  0  0  0  0  0  0  0  0  0  0
    2.9224    0.4061  -10.7734 C   0  0  0  0  0  0  0  0  0  0  0  0
    2.4321    0.3714   -9.4238 C   0  0  0  0  0  0  0  0  0  0  0  0
    1.4208    1.2736   -9.0485 C   0  0  0  0  0  0  0  0  0  0  0  0
    0.9053    2.1362   -9.9798 C   0  0  0  0  0  0  0  0  0  0  0  0
   -0.3639    3.2921   -9.5675 S   0  0  0  0  0  0  0  0  0  0  0  0
    1.3681    2.1494  -11.3176 C   0  0  0  0  0  0  0  0  0  0  0  0
    2.3606    1.3091  -11.7089 C   0  0  0  0  0  0  0  0  0  0  0  0
    3.2319   -4.4104    5.3454 H   0  0  0  0  0  0  0  0  0  0  0  0
    4.8132   -2.8897    7.0763 H   0  0  0  0  0  0  0  0  0  0  0  0
    5.7460    0.2599    8.2619 H   0  0  0  0  0  0  0  0  0  0  0  0
    4.9950   -0.5387    9.6305 H   0  0  0  0  0  0  0  0  0  0  0  0
    6.0399   -1.4677    8.5394 H   0  0  0  0  0  0  0  0  0  0  0  0
    2.0914    2.4770    7.4458 H   0  0  0  0  0  0  0  0  0  0  0  0
    2.6435    2.8577    9.0960 H   0  0  0  0  0  0  0  0  0  0  0  0
    1.3165    1.6951    8.8529 H   0  0  0  0  0  0  0  0  0  0  0  0
    1.1117    0.4307    6.8985 H   0  0  0  0  0  0  0  0  0  0  0  0
   -0.5785   -0.2661    5.6261 H   0  0  0  0  0  0  0  0  0  0  0  0
   -1.1423   -2.4978    3.6165 H   0  0  0  0  0  0  0  0  0  0  0  0
   -2.3934    0.2334    6.3951 H   0  0  0  0  0  0  0  0  0  0  0  0
   -3.0365    1.7192    8.1046 H   0  0  0  0  0  0  0  0  0  0  0  0
   -3.6708    3.2541    7.4807 H   0  0  0  0  0  0  0  0  0  0  0  0
   -4.7766    2.0596    8.1326 H   0  0  0  0  0  0  0  0  0  0  0  0
   -7.6501    2.7714    4.9669 H   0  0  0  0  0  0  0  0  0  0  0  0
   -6.5716    3.9925    4.2330 H   0  0  0  0  0  0  0  0  0  0  0  0
   -7.3550    4.3178    5.7992 H   0  0  0  0  0  0  0  0  0  0  0  0
   -6.0866    1.8305    3.5039 H   0  0  0  0  0  0  0  0  0  0  0  0
   -6.4294    0.4778    1.8869 H   0  0  0  0  0  0  0  0  0  0  0  0
   -6.6564   -0.2673   -0.2616 H   0  0  0  0  0  0  0  0  0  0  0  0
   -7.1242   -1.2600   -2.0992 H   0  0  0  0  0  0  0  0  0  0  0  0
   -7.5066   -2.5087   -5.8625 H   0  0  0  0  0  0  0  0  0  0  0  0
   -5.2551   -2.4557   -5.7494 H   0  0  0  0  0  0  0  0  0  0  0  0
   -3.0489   -2.1031   -4.7905 H   0  0  0  0  0  0  0  0  0  0  0  0
   -0.8480   -1.3450    0.2453 H   0  0  0  0  0  0  0  0  0  0  0  0
    2.6607   -1.1339    2.0698 H   0  0  0  0  0  0  0  0  0  0  0  0
    3.3828   -0.9041   -0.0627 H   0  0  0  0  0  0  0  0  0  0  0  0
    3.2545   -0.9617   -2.5078 H   0  0  0  0  0  0  0  0  0  0  0  0
    3.1343   -3.0832   -3.3106 H   0  0  0  0  0  0  0  0  0  0  0  0
    6.7386   -4.6476   -4.0068 H   0  0  0  0  0  0  0  0  0  0  0  0
    6.5611   -3.3659   -5.8537 H   0  0  0  0  0  0  0  0  0  0  0  0
    5.4889   -1.9736   -7.5324 H   0  0  0  0  0  0  0  0  0  0  0  0
    4.4838   -0.6723  -11.8960 H   0  0  0  0  0  0  0  0  0  0  0  0
    1.0616    1.2978   -8.0325 H   0  0  0  0  0  0  0  0  0  0  0  0
   -0.4994    2.9136   -8.2977 H   0  0  0  0  0  0  0  0  0  0  0  0
    0.9216    2.8470  -12.0095 H   0  0  0  0  0  0  0  0  0  0  0  0
    2.7336    1.3156  -12.7214 H   0  0  0  0  0  0  0  0  0  0  0  0
  1  2  1  0  0  0  0
  2  3  1  0  0  0  0
  3  4  2  0  0  0  0
  4  5  1  0  0  0  0
  5  6  1  0  0  0  0
  6  7  2  0  0  0  0
  7  8  1  0  0  0  0
  7  9  1  0  0  0  0
  9 10  1  0  0  0  0
 10 11  1  0  0  0  0
  9 12  2  0  0  0  0
  3 13  1  0  0  0  0
 13 14  2  0  0  0  0
 14 15  1  0  0  0  0
 15 16  1  0  0  0  0
 16 17  1  0  0  0  0
 17 18  2  0  0  0  0
 18 19  1  0  0  0  0
 19 20  1  0  0  0  0
 20 21  2  0  0  0  0
 21 22  1  0  0  0  0
 21 23  1  0  0  0  0
 23 24  1  0  0  0  0
 24 25  1  0  0  0  0
 23 26  2  0  0  0  0
 17 27  1  0  0  0  0
 27 28  2  0  0  0  0
 28 29  1  0  0  0  0
 29 30  1  0  0  0  0
 30 31  1  0  0  0  0
 31 32  2  0  0  0  0
 32 33  1  0  0  0  0
 33 34  1  0  0  0  0
 34 35  2  0  0  0  0
 35 36  1  0  0  0  0
 35 37  1  0  0  0  0
 37 38  2  0  0  0  0
 31 39  1  0  0  0  0
 39 40  1  0  0  0  0
 40 41  1  0  0  0  0
 41 42  2  0  0  0  0
 42 43  1  0  0  0  0
 43 44  1  0  0  0  0
 44 45  2  0  0  0  0
 45 46  1  0  0  0  0
 45 47  1  0  0  0  0
 47 48  2  0  0  0  0
 41 49  1  0  0  0  0
 49 50  1  0  0  0  0
 50 51  1  0  0  0  0
 51 52  2  0  0  0  0
 52 53  1  0  0  0  0
 53 54  1  0  0  0  0
 54 55  2  0  0  0  0
 55 56  1  0  0  0  0
 55 57  1  0  0  0  0
 57 58  2  0  0  0  0
 51 59  1  0  0  0  0
 59 60  1  0  0  0  0
 60 61  1  0  0  0  0
 61 62  2  0  0  0  0
 62 63  1  0  0  0  0
 63 64  1  0  0  0  0
 64 65  2  0  0  0  0
 65 66  1  0  0  0  0
 65 67  1  0  0  0  0
 67 68  2  0  0  0  0
  5  1  2  0  0  0  0
 19 15  2  0  0  0  0
 33 29  2  0  0  0  0
 43 39  2  0  0  0  0
 53 49  2  0  0  0  0
 63 59  2  0  0  0  0
 12  4  1  0  0  0  0
 26 18  1  0  0  0  0
 38 32  1  0  0  0  0
 48 42  1  0  0  0  0
 58 52  1  0  0  0  0
 68 62  1  0  0  0  0
  1 69  1  0  0  0  0
  6 70  1  0  0  0  0
  8 71  1  0  0  0  0
  8 72  1  0  0  0  0
  8 73  1  0  0  0  0
 11 74  1  0  0  0  0
 11 75  1  0  0  0  0
 11 76  1  0  0  0  0
 12 77  1  0  0  0  0
 13 78  1  0  0  0  0
 14 79  1  0  0  0  0
 20 80  1  0  0  0  0
 22 81  1  0  0  0  0
 22 82  1  0  0  0  0
 22 83  1  0  0  0  0
 25 84  1  0  0  0  0
 25 85  1  0  0  0  0
 25 86  1  0  0  0  0
 26 87  1  0  0  0  0
 27 88  1  0  0  0  0
 28 89  1  0  0  0  0
 34 90  1  0  0  0  0
 36 91  1  0  0  0  0
 37 92  1  0  0  0  0
 38 93  1  0  0  0  0
 44 94  1  0  0  0  0
 46 95  1  0  0  0  0
 47 96  1  0  0  0  0
 48 97  1  0  0  0  0
 54 98  1  0  0  0  0
 56 99  1  0  0  0  0
 57100  1  0  0  0  0
 58101  1  0  0  0  0
 61102  1  0  0  0  0
 64103  1  0  0  0  0
 66104  1  0  0  0  0
 67105  1  0  0  0  0
 68106  1  0  0  0  0
M  END
