200

C          6.34090      -10.13630        5.18240
C          6.76950       -8.85770        5.18680
C          5.83130       -7.95830        4.60310
C          5.96430       -6.57530        4.39480
C          7.19380       -5.87250        4.72710
S          7.19290       -4.47330        5.75770
C          8.90700       -4.27620        5.62190
C          9.62180       -3.20380        6.36750
C          9.94410       -3.65120        7.79520
C          9.43420       -5.24710        4.82400
Cl        11.10470       -5.37830        4.45110
C          8.46510       -6.15020        4.31020
Cl         8.86280       -7.41080        3.21380
C          4.88540       -5.91700        3.82750
C          3.69700       -6.57690        3.43300
C          3.57180       -7.96580        3.61650
C          2.37680       -8.66780        3.18100
S          1.78190       -8.49410        1.55320
C          0.45800       -9.57400        1.83650
C         -0.51850       -9.88990        0.75770
C          0.15970      -10.57240       -0.43040
C          0.49210      -10.03570        3.11720
C          1.57440       -9.52270        3.88310
Cl         1.76690       -9.88500        5.54670
Cl        -0.65820      -11.12460        3.77820
C          4.64880       -8.62400        4.20030
S          4.76850      -10.33610        4.49070
C          2.76390       -5.68480        2.86450
C          3.20620       -4.39050        2.77110
S          4.82100       -4.21960        3.44290
C          2.50690       -3.33450        2.14050
S          0.94400       -3.68870        1.46800
C          0.80300       -2.13860        0.71850
C          1.94150       -1.35930        0.99770
C          2.89320       -2.02750        1.82170
C          4.07860       -1.35300        2.18120
C          4.35890       -0.11590        1.67900
C          5.62940        0.59820        2.00730
C          3.43410        0.51500        0.79100
O          3.84710        1.71960        0.31550
C          3.08860        2.34630       -0.68870
C          2.23720       -0.08090        0.48620
C         -0.34890       -1.69780        0.03010
C         -1.35870       -2.37000       -0.59150
C         -1.55870       -3.71350       -0.98330
S         -0.42210       -5.02390       -0.83600
C         -1.35200       -6.07820       -1.84350
C         -2.53580       -5.47130       -2.23170
C         -2.66660       -4.13790       -1.73790
C         -3.82600       -3.40980       -2.07360
C         -4.79250       -3.95190       -2.86820
C         -6.02710       -3.19460       -3.23630
C         -4.63080       -5.27660       -3.38980
O         -5.63560       -5.67960       -4.21590
C         -5.49550       -6.91300       -4.87540
C         -3.53500       -6.02530       -3.06740
C         -0.78990       -7.31370       -2.40590
C         -0.08970       -7.26690       -3.53980
C          0.12030       -5.93520       -4.11450
C          0.97100       -5.00450       -3.62170
C          0.58900       -3.66550       -3.91070
C          1.11940       -2.47760       -3.37080
C          2.37180       -2.43150       -2.63660
S          2.84330       -3.65540       -1.49030
C          4.35220       -2.89390       -1.14100
C          5.34990       -3.49780       -0.21470
C          5.20060       -5.00980       -0.10000
C          4.46280       -1.73930       -1.85660
Cl         5.81720       -0.69250       -1.76040
C          3.35730       -1.47900       -2.70710
Cl         3.38260       -0.16680       -3.81170
C          0.32710       -1.34130       -3.52480
C         -0.86580       -1.31470       -4.28540
C         -1.27460       -2.45930       -4.99530
C         -2.40690       -2.41570       -5.89510
S         -3.60090       -3.67720       -5.93370
C         -4.52170       -2.88350       -7.16160
C         -5.75760       -3.50680       -7.70990
C         -5.42250       -4.46060       -8.85890
C         -3.91280       -1.72180       -7.53490
C         -2.71640       -1.45140       -6.82070
Cl        -1.72990       -0.09310       -7.18190
Cl        -4.52320       -0.66820       -8.74440
C         -0.57610       -3.62720       -4.71360
S         -1.09620       -5.22930       -5.15810
C         -1.59510       -0.11350       -4.09770
C         -0.99880        0.75160       -3.23170
S          0.54260        0.14960       -2.66200
C         -1.48730        1.98670       -2.71740
C         -0.95600        2.69050       -1.67770
C         -1.68810        3.85150       -1.34200
C         -1.40280        4.78990       -0.33250
C         -0.28720        4.59050        0.57790
S         -0.10940        3.09020        1.44840
C          1.31860        3.63430        2.25960
C          2.07540        2.77320        3.21210
C          1.30940        1.52330        3.62080
C          1.62550        4.90350        1.86690
Cl         2.98810        5.76660        2.45180
C          0.71960        5.45030        0.91920
Cl         0.94620        7.00060        0.22550
C         -2.25890        5.87610       -0.23150
C         -3.37920        6.06010       -1.08170
C         -3.64980        5.12930       -2.10260
C         -4.75970        5.32010       -3.01920
S         -5.92570        4.06300       -3.31050
C         -6.81040        5.03500       -4.43550
C         -8.06070        4.53820       -5.07320
C         -9.28280        4.86890       -4.21310
C         -6.22680        6.25990       -4.56410
C         -5.06220        6.42430       -3.76780
Cl        -4.10240        7.84640       -3.82500
Cl        -6.81910        7.49660       -5.59590
C         -2.80440        4.03220       -2.19290
S         -2.93010        2.74270       -3.35990
C         -4.13180        7.19720       -0.72000
C         -3.62100        7.89700        0.34250
S         -2.16820        7.13530        0.96420
C         -4.16570        9.08790        0.88840
S         -5.64010        9.70250        0.21160
C         -5.65740       11.08820        1.24690
C         -4.57180       11.05680        2.12280
C         -3.71660        9.92780        1.91260
C         -2.56440        9.78640        2.71470
C         -2.27740       10.68650        3.69700
C         -1.05990       10.55990        4.55330
C         -3.17000       11.77820        3.94190
O         -2.80320       12.58160        4.97810
C         -3.61990       13.67880        5.29970
C         -4.28830       11.95670        3.17430
C         -6.71850       12.03810        1.06230
C         -6.69690       13.33600        1.36450
H          6.84930      -11.00400        5.55490
H          7.71370       -8.54700        5.59450
H          8.99870       -2.30850        6.39950
H         10.54810       -2.96850        5.84030
H         10.46850       -2.86070        8.32510
H          9.02810       -3.88490        8.33260
H         10.57390       -4.53700        7.77920
H         -1.28970      -10.54090        1.17260
H         -0.99340       -8.96280        0.42450
H          0.91690       -9.91890       -0.85850
H          0.63860      -11.49460       -0.11110
H         -0.57350      -10.81290       -1.19650
H          1.79280       -5.97940        2.51150
H          4.77480       -1.82070        2.86010
H          6.22880        0.02020        2.70520
H          5.41850        1.57610        2.43720
H          6.20130        0.76540        1.09570
H          2.11450        2.67140       -0.31150
H          3.66190        3.22150       -0.98960
H          2.94300        1.68930       -1.55110
H          1.52520        0.39850       -0.16280
H         -0.43830       -0.61790        0.00410
H         -2.15290       -1.72880       -0.95540
H         -3.96050       -2.40850       -1.69300
H         -6.07710       -3.06670       -4.31670
H         -6.91180       -3.75270       -2.93490
H         -6.03940       -2.21780       -2.76080
H         -5.48990       -7.74970       -4.16940
H         -4.58050       -6.93770       -5.47590
H         -6.36290       -7.00140       -5.52800
H         -3.38780       -7.02530       -3.44140
H         -0.98500       -8.25050       -1.90250
H          0.30450       -8.14860       -4.02200
H          1.78710       -5.26990       -2.97730
H          5.24220       -3.04450        0.77500
H          6.34840       -3.24270       -0.57900
H          5.34770       -5.48360       -1.06750
H          4.20790       -5.27000        0.26180
H          5.93600       -5.40540        0.59580
H         -6.42170       -2.71900       -8.07030
H         -6.26240       -4.05970       -6.91540
H         -4.93270       -3.92110       -9.66540
H         -6.33080       -4.91500       -9.24520
H         -4.75640       -5.24720       -8.51240
H         -2.56000        0.07740       -4.53090
H         -0.06100        2.37820       -1.17280
H          3.02080        2.48560        2.74170
H          2.32420        3.37140        4.09340
H          1.08580        0.91170        2.74940
H          0.37350        1.78970        4.10630
H          1.90390        0.92910        4.30970
H         -7.99170        3.45790       -5.20940
H         -8.16640        5.00990       -6.05210
H        -10.18660        4.50060       -4.69100
H         -9.19100        4.40570       -3.23360
H         -9.37090        5.94430       -4.08250
H         -5.03640        7.49380       -1.21870
H         -1.89970        8.95370        2.55130
H         -0.45040       11.45820        4.46880
H         -1.34730       10.46240        5.59900
H         -0.46990        9.69620        4.26020
H         -3.13820       14.16770        6.14520
H         -4.62630       13.36060        5.59100
H         -3.69030       14.38530        4.46600
H         -4.98160       12.75540        3.37050
H         -7.59790       11.63000        0.57810
H         -7.55210       13.96010        1.17280
H         -5.83180       13.82460        1.77500
