
  xtb     03042208403D
 energy: -229.744639851282 gnorm: 0.000563389594 xtb: 6.4.1 (unknown)
142157  0     0  0            999 V2000
   -6.6272    8.8942    7.6011 C   0  0  0  0  0  0  0  0  0  0  0  0
   -7.7874    7.6717    7.3512 S   0  0  0  0  0  0  0  0  0  0  0  0
   -6.5960    6.5311    6.7851 C   0  0  0  0  0  0  0  0  0  0  0  0
   -5.3306    7.1326    6.7643 C   0  0  0  0  0  0  0  0  0  0  0  0
   -5.3610    8.4821    7.2499 C   0  0  0  0  0  0  0  0  0  0  0  0
   -4.1640    9.2359    7.3139 C   0  0  0  0  0  0  0  0  0  0  0  0
   -2.9845    8.6991    6.9015 C   0  0  0  0  0  0  0  0  0  0  0  0
   -1.6967    9.4564    6.9564 C   0  0  0  0  0  0  0  0  0  0  0  0
   -2.9645    7.3673    6.3723 C   0  0  0  0  0  0  0  0  0  0  0  0
   -1.7343    6.9467    5.9626 O   0  0  0  0  0  0  0  0  0  0  0  0
   -1.6009    5.6430    5.4547 C   0  0  0  0  0  0  0  0  0  0  0  0
   -4.1048    6.6129    6.2961 C   0  0  0  0  0  0  0  0  0  0  0  0
   -7.0554    5.2298    6.4602 C   0  0  0  0  0  0  0  0  0  0  0  0
   -6.2772    4.1255    6.3200 C   0  0  0  0  0  0  0  0  0  0  0  0
   -6.6443    2.8077    5.9611 C   0  0  0  0  0  0  0  0  0  0  0  0
   -5.3367    1.6594    5.9711 S   0  0  0  0  0  0  0  0  0  0  0  0
   -6.3391    0.3439    5.4679 C   0  0  0  0  0  0  0  0  0  0  0  0
   -7.6575    0.7856    5.3003 C   0  0  0  0  0  0  0  0  0  0  0  0
   -7.8344    2.1809    5.5612 C   0  0  0  0  0  0  0  0  0  0  0  0
   -9.1176    2.7383    5.3827 C   0  0  0  0  0  0  0  0  0  0  0  0
  -10.1767    1.9706    4.9946 C   0  0  0  0  0  0  0  0  0  0  0  0
  -11.5439    2.5461    4.8050 C   0  0  0  0  0  0  0  0  0  0  0  0
   -9.9916    0.5745    4.7550 C   0  0  0  0  0  0  0  0  0  0  0  0
  -11.1220   -0.0890    4.3795 O   0  0  0  0  0  0  0  0  0  0  0  0
  -11.0373   -1.4688    4.1309 C   0  0  0  0  0  0  0  0  0  0  0  0
   -8.7574    0.0002    4.8947 C   0  0  0  0  0  0  0  0  0  0  0  0
   -5.8611   -0.9958    5.3599 C   0  0  0  0  0  0  0  0  0  0  0  0
   -4.5835   -1.4159    5.3457 C   0  0  0  0  0  0  0  0  0  0  0  0
   -3.3987   -0.5593    5.2829 C   0  0  0  0  0  0  0  0  0  0  0  0
   -2.3917   -0.6958    6.2475 C   0  0  0  0  0  0  0  0  0  0  0  0
   -1.2692    0.1042    6.2434 C   0  0  0  0  0  0  0  0  0  0  0  0
   -1.1330    1.0497    5.2347 C   0  0  0  0  0  0  0  0  0  0  0  0
   -2.1275    1.1563    4.2408 C   0  0  0  0  0  0  0  0  0  0  0  0
   -3.2585    0.3671    4.2504 C   0  0  0  0  0  0  0  0  0  0  0  0
   -1.8188    2.1157    3.3227 O   0  0  0  0  0  0  0  0  0  0  0  0
   -0.6255    2.6445    3.7105 C   0  0  0  0  0  0  0  0  0  0  0  0
   -0.1485    2.0369    4.8914 C   0  0  0  0  0  0  0  0  0  0  0  0
    1.0450    2.4728    5.4522 C   0  0  0  0  0  0  0  0  0  0  0  0
    1.7283    3.4949    4.8289 C   0  0  0  0  0  0  0  0  0  0  0  0
    1.2692    4.0752    3.6373 C   0  0  0  0  0  0  0  0  0  0  0  0
    0.0675    3.6516    3.0713 C   0  0  0  0  0  0  0  0  0  0  0  0
    2.0381    5.1687    3.0461 C   0  0  0  0  0  0  0  0  0  0  0  0
    2.3092    5.3807    1.7541 C   0  0  0  0  0  0  0  0  0  0  0  0
    2.0332    4.5131    0.6157 C   0  0  0  0  0  0  0  0  0  0  0  0
    1.8679    5.1042   -0.6478 C   0  0  0  0  0  0  0  0  0  0  0  0
    1.6568    4.3569   -1.7855 C   0  0  0  0  0  0  0  0  0  0  0  0
    1.6198    2.9726   -1.6697 C   0  0  0  0  0  0  0  0  0  0  0  0
    1.7896    2.3791   -0.4010 C   0  0  0  0  0  0  0  0  0  0  0  0
    2.0047    3.1242    0.7390 C   0  0  0  0  0  0  0  0  0  0  0  0
    1.7351    1.0199   -0.4727 O   0  0  0  0  0  0  0  0  0  0  0  0
    1.5404    0.7156   -1.7858 C   0  0  0  0  0  0  0  0  0  0  0  0
    1.4651    1.8768   -2.5831 C   0  0  0  0  0  0  0  0  0  0  0  0
    1.2887    1.7531   -3.9565 C   0  0  0  0  0  0  0  0  0  0  0  0
    1.2095    0.4905   -4.5008 C   0  0  0  0  0  0  0  0  0  0  0  0
    1.2828   -0.6660   -3.7073 C   0  0  0  0  0  0  0  0  0  0  0  0
    1.4311   -0.5490   -2.3241 C   0  0  0  0  0  0  0  0  0  0  0  0
    1.2167   -1.9955   -4.2893 C   0  0  0  0  0  0  0  0  0  0  0  0
    1.6124   -2.3146   -5.5282 C   0  0  0  0  0  0  0  0  0  0  0  0
    1.5983   -3.6535   -6.0918 C   0  0  0  0  0  0  0  0  0  0  0  0
    0.6773   -4.6243   -5.6662 C   0  0  0  0  0  0  0  0  0  0  0  0
    0.6726   -5.9006   -6.1841 C   0  0  0  0  0  0  0  0  0  0  0  0
    1.6221   -6.2345   -7.1429 C   0  0  0  0  0  0  0  0  0  0  0  0
    2.5465   -5.2591   -7.5716 C   0  0  0  0  0  0  0  0  0  0  0  0
    2.5355   -3.9727   -7.0762 C   0  0  0  0  0  0  0  0  0  0  0  0
    3.4102   -5.7586   -8.4987 O   0  0  0  0  0  0  0  0  0  0  0  0
    3.0649   -7.0638   -8.6752 C   0  0  0  0  0  0  0  0  0  0  0  0
    1.9571   -7.4214   -7.8778 C   0  0  0  0  0  0  0  0  0  0  0  0
    1.4517   -8.7136   -7.9487 C   0  0  0  0  0  0  0  0  0  0  0  0
    2.0685   -9.6156   -8.7897 C   0  0  0  0  0  0  0  0  0  0  0  0
    3.1979   -9.2691   -9.5439 C   0  0  0  0  0  0  0  0  0  0  0  0
    3.6947   -7.9680   -9.5040 C   0  0  0  0  0  0  0  0  0  0  0  0
    3.8413  -10.2787  -10.3860 C   0  0  0  0  0  0  0  0  0  0  0  0
    5.1563  -10.4929  -10.4754 C   0  0  0  0  0  0  0  0  0  0  0  0
    6.1907   -9.8496   -9.6675 C   0  0  0  0  0  0  0  0  0  0  0  0
    7.4201   -9.5266  -10.2603 C   0  0  0  0  0  0  0  0  0  0  0  0
    8.4329   -8.9148   -9.5530 C   0  0  0  0  0  0  0  0  0  0  0  0
    8.2246   -8.6309   -8.2090 C   0  0  0  0  0  0  0  0  0  0  0  0
    6.9973   -8.9818   -7.6084 C   0  0  0  0  0  0  0  0  0  0  0  0
    5.9811   -9.5905   -8.3140 C   0  0  0  0  0  0  0  0  0  0  0  0
    6.9701   -8.6472   -6.2888 O   0  0  0  0  0  0  0  0  0  0  0  0
    8.1743   -8.0700   -6.0176 C   0  0  0  0  0  0  0  0  0  0  0  0
    9.0001   -8.0307   -7.1604 C   0  0  0  0  0  0  0  0  0  0  0  0
   10.2722   -7.4809   -7.0616 C   0  0  0  0  0  0  0  0  0  0  0  0
   10.6811   -6.9894   -5.8413 C   0  0  0  0  0  0  0  0  0  0  0  0
    9.8571   -7.0204   -4.7041 C   0  0  0  0  0  0  0  0  0  0  0  0
    8.5803   -7.5747   -4.7965 C   0  0  0  0  0  0  0  0  0  0  0  0
   10.3768   -6.4683   -3.4595 C   0  0  0  0  0  0  0  0  0  0  0  0
    9.7056   -6.2901   -2.3274 C   0  0  0  0  0  0  0  0  0  0  0  0
   -6.9266    9.8462    7.9915 H   0  0  0  0  0  0  0  0  0  0  0  0
   -4.2060   10.2464    7.6927 H   0  0  0  0  0  0  0  0  0  0  0  0
   -0.9820    8.9303    7.5876 H   0  0  0  0  0  0  0  0  0  0  0  0
   -1.2607    9.5231    5.9610 H   0  0  0  0  0  0  0  0  0  0  0  0
   -1.8527   10.4575    7.3490 H   0  0  0  0  0  0  0  0  0  0  0  0
   -2.1827    5.5032    4.5381 H   0  0  0  0  0  0  0  0  0  0  0  0
   -0.5435    5.5184    5.2273 H   0  0  0  0  0  0  0  0  0  0  0  0
   -1.9006    4.8899    6.1909 H   0  0  0  0  0  0  0  0  0  0  0  0
   -4.0804    5.6346    5.8511 H   0  0  0  0  0  0  0  0  0  0  0  0
   -8.1281    5.1442    6.3743 H   0  0  0  0  0  0  0  0  0  0  0  0
   -5.2228    4.2214    6.5357 H   0  0  0  0  0  0  0  0  0  0  0  0
   -9.2725    3.7916    5.5448 H   0  0  0  0  0  0  0  0  0  0  0  0
  -11.8853    2.3714    3.7859 H   0  0  0  0  0  0  0  0  0  0  0  0
  -12.2513    2.0546    5.4714 H   0  0  0  0  0  0  0  0  0  0  0  0
  -11.5467    3.6141    5.0056 H   0  0  0  0  0  0  0  0  0  0  0  0
  -10.3588   -1.6875    3.2995 H   0  0  0  0  0  0  0  0  0  0  0  0
  -10.7097   -2.0182    5.0199 H   0  0  0  0  0  0  0  0  0  0  0  0
  -12.0451   -1.7841    3.8646 H   0  0  0  0  0  0  0  0  0  0  0  0
   -8.6014   -1.0475    4.6969 H   0  0  0  0  0  0  0  0  0  0  0  0
   -6.6393   -1.7486    5.3393 H   0  0  0  0  0  0  0  0  0  0  0  0
   -4.3893   -2.4796    5.3912 H   0  0  0  0  0  0  0  0  0  0  0  0
   -2.5203   -1.4341    7.0256 H   0  0  0  0  0  0  0  0  0  0  0  0
   -0.5104    0.0003    7.0040 H   0  0  0  0  0  0  0  0  0  0  0  0
   -4.0109    0.4630    3.4838 H   0  0  0  0  0  0  0  0  0  0  0  0
    1.4215    2.0251    6.3591 H   0  0  0  0  0  0  0  0  0  0  0  0
    2.6566    3.8517    5.2513 H   0  0  0  0  0  0  0  0  0  0  0  0
   -0.3110    4.1030    2.1686 H   0  0  0  0  0  0  0  0  0  0  0  0
    2.4146    5.8865    3.7660 H   0  0  0  0  0  0  0  0  0  0  0  0
    2.8229    6.2989    1.4941 H   0  0  0  0  0  0  0  0  0  0  0  0
    1.9036    6.1818   -0.7204 H   0  0  0  0  0  0  0  0  0  0  0  0
    1.5328    4.8306   -2.7474 H   0  0  0  0  0  0  0  0  0  0  0  0
    2.1662    2.6416    1.6885 H   0  0  0  0  0  0  0  0  0  0  0  0
    1.2194    2.6315   -4.5800 H   0  0  0  0  0  0  0  0  0  0  0  0
    1.0644    0.3816   -5.5646 H   0  0  0  0  0  0  0  0  0  0  0  0
    1.4872   -1.4233   -1.6947 H   0  0  0  0  0  0  0  0  0  0  0  0
    0.8798   -2.7762   -3.6200 H   0  0  0  0  0  0  0  0  0  0  0  0
    2.0460   -1.5519   -6.1617 H   0  0  0  0  0  0  0  0  0  0  0  0
   -0.0605   -4.3509   -4.9274 H   0  0  0  0  0  0  0  0  0  0  0  0
   -0.0495   -6.6311   -5.8522 H   0  0  0  0  0  0  0  0  0  0  0  0
    3.2509   -3.2426   -7.4213 H   0  0  0  0  0  0  0  0  0  0  0  0
    0.5958   -9.0014   -7.3574 H   0  0  0  0  0  0  0  0  0  0  0  0
    1.6950  -10.6275   -8.8546 H   0  0  0  0  0  0  0  0  0  0  0  0
    4.5444   -7.6777  -10.1004 H   0  0  0  0  0  0  0  0  0  0  0  0
    3.1688  -10.8843  -10.9809 H   0  0  0  0  0  0  0  0  0  0  0  0
    5.5199  -11.2135  -11.1977 H   0  0  0  0  0  0  0  0  0  0  0  0
    7.5628   -9.7519  -11.3075 H   0  0  0  0  0  0  0  0  0  0  0  0
    9.3691   -8.6638  -10.0279 H   0  0  0  0  0  0  0  0  0  0  0  0
    5.0597   -9.8650   -7.8275 H   0  0  0  0  0  0  0  0  0  0  0  0
   10.9224   -7.4435   -7.9223 H   0  0  0  0  0  0  0  0  0  0  0  0
   11.6683   -6.5594   -5.7499 H   0  0  0  0  0  0  0  0  0  0  0  0
    7.9218   -7.6279   -3.9458 H   0  0  0  0  0  0  0  0  0  0  0  0
   11.4182   -6.1729   -3.5002 H   0  0  0  0  0  0  0  0  0  0  0  0
    8.6661   -6.5466   -2.2185 H   0  0  0  0  0  0  0  0  0  0  0  0
   10.1797   -5.8686   -1.4578 H   0  0  0  0  0  0  0  0  0  0  0  0
  1  2  1  0  0  0  0
  2  3  1  0  0  0  0
  3  4  2  0  0  0  0
  4  5  1  0  0  0  0
  5  6  1  0  0  0  0
  6  7  2  0  0  0  0
  7  8  1  0  0  0  0
  7  9  1  0  0  0  0
  9 10  1  0  0  0  0
 10 11  1  0  0  0  0
  9 12  2  0  0  0  0
  3 13  1  0  0  0  0
 13 14  2  0  0  0  0
 14 15  1  0  0  0  0
 15 16  1  0  0  0  0
 16 17  1  0  0  0  0
 17 18  2  0  0  0  0
 18 19  1  0  0  0  0
 19 20  1  0  0  0  0
 20 21  2  0  0  0  0
 21 22  1  0  0  0  0
 21 23  1  0  0  0  0
 23 24  1  0  0  0  0
 24 25  1  0  0  0  0
 23 26  2  0  0  0  0
 17 27  1  0  0  0  0
 27 28  2  0  0  0  0
 28 29  1  0  0  0  0
 29 30  2  0  0  0  0
 30 31  1  0  0  0  0
 31 32  2  0  0  0  0
 32 33  1  0  0  0  0
 33 34  2  0  0  0  0
 33 35  1  0  0  0  0
 35 36  1  0  0  0  0
 36 37  2  0  0  0  0
 37 38  1  0  0  0  0
 38 39  2  0  0  0  0
 39 40  1  0  0  0  0
 40 41  2  0  0  0  0
 40 42  1  0  0  0  0
 42 43  2  0  0  0  0
 43 44  1  0  0  0  0
 44 45  2  0  0  0  0
 45 46  1  0  0  0  0
 46 47  2  0  0  0  0
 47 48  1  0  0  0  0
 48 49  2  0  0  0  0
 48 50  1  0  0  0  0
 50 51  1  0  0  0  0
 51 52  2  0  0  0  0
 52 53  1  0  0  0  0
 53 54  2  0  0  0  0
 54 55  1  0  0  0  0
 55 56  2  0  0  0  0
 55 57  1  0  0  0  0
 57 58  2  0  0  0  0
 58 59  1  0  0  0  0
 59 60  2  0  0  0  0
 60 61  1  0  0  0  0
 61 62  2  0  0  0  0
 62 63  1  0  0  0  0
 63 64  2  0  0  0  0
 63 65  1  0  0  0  0
 65 66  1  0  0  0  0
 66 67  2  0  0  0  0
 67 68  1  0  0  0  0
 68 69  2  0  0  0  0
 69 70  1  0  0  0  0
 70 71  2  0  0  0  0
 70 72  1  0  0  0  0
 72 73  2  0  0  0  0
 73 74  1  0  0  0  0
 74 75  2  0  0  0  0
 75 76  1  0  0  0  0
 76 77  2  0  0  0  0
 77 78  1  0  0  0  0
 78 79  2  0  0  0  0
 78 80  1  0  0  0  0
 80 81  1  0  0  0  0
 81 82  2  0  0  0  0
 82 83  1  0  0  0  0
 83 84  2  0  0  0  0
 84 85  1  0  0  0  0
 85 86  2  0  0  0  0
 85 87  1  0  0  0  0
 87 88  2  0  0  0  0
  5  1  2  0  0  0  0
 19 15  2  0  0  0  0
 34 29  1  0  0  0  0
 41 36  1  0  0  0  0
 49 44  1  0  0  0  0
 56 51  1  0  0  0  0
 64 59  1  0  0  0  0
 71 66  1  0  0  0  0
 79 74  1  0  0  0  0
 86 81  1  0  0  0  0
 12  4  1  0  0  0  0
 26 18  1  0  0  0  0
 37 32  1  0  0  0  0
 52 47  1  0  0  0  0
 67 62  1  0  0  0  0
 82 77  1  0  0  0  0
  1 89  1  0  0  0  0
  6 90  1  0  0  0  0
  8 91  1  0  0  0  0
  8 92  1  0  0  0  0
  8 93  1  0  0  0  0
 11 94  1  0  0  0  0
 11 95  1  0  0  0  0
 11 96  1  0  0  0  0
 12 97  1  0  0  0  0
 13 98  1  0  0  0  0
 14 99  1  0  0  0  0
 20100  1  0  0  0  0
 22101  1  0  0  0  0
 22102  1  0  0  0  0
 22103  1  0  0  0  0
 25104  1  0  0  0  0
 25105  1  0  0  0  0
 25106  1  0  0  0  0
 26107  1  0  0  0  0
 27108  1  0  0  0  0
 28109  1  0  0  0  0
 30110  1  0  0  0  0
 31111  1  0  0  0  0
 34112  1  0  0  0  0
 38113  1  0  0  0  0
 39114  1  0  0  0  0
 41115  1  0  0  0  0
 42116  1  0  0  0  0
 43117  1  0  0  0  0
 45118  1  0  0  0  0
 46119  1  0  0  0  0
 49120  1  0  0  0  0
 53121  1  0  0  0  0
 54122  1  0  0  0  0
 56123  1  0  0  0  0
 57124  1  0  0  0  0
 58125  1  0  0  0  0
 60126  1  0  0  0  0
 61127  1  0  0  0  0
 64128  1  0  0  0  0
 68129  1  0  0  0  0
 69130  1  0  0  0  0
 71131  1  0  0  0  0
 72132  1  0  0  0  0
 73133  1  0  0  0  0
 75134  1  0  0  0  0
 76135  1  0  0  0  0
 79136  1  0  0  0  0
 83137  1  0  0  0  0
 84138  1  0  0  0  0
 86139  1  0  0  0  0
 87140  1  0  0  0  0
 88141  1  0  0  0  0
 88142  1  0  0  0  0
M  END
