126

C          9.92670        1.12460        1.07270
C          8.71460        1.56760        0.56250
C          8.64770        2.93120       -0.07080
C          8.31940        4.00130        0.97280
C          7.58920        0.73690        0.65700
C          7.72700       -0.51520        1.25720
C          8.94010       -0.94140        1.75990
C         10.04830       -0.11700        1.66960
C          6.28770        1.16540        0.15080
C          5.38450        0.34830       -0.39550
C          4.09140        0.79000       -0.92090
C          2.93650        0.01300       -0.76610
C          3.00740       -1.28310       -0.00090
C          3.10690       -2.47880       -0.95000
C          1.73190        0.43920       -1.35620
C          1.70560        1.64880       -2.05760
C          2.83880        2.42390       -2.17900
C          4.02670        1.99610       -1.61820
C          0.52500       -0.34990       -1.24250
C         -0.54420       -0.31460       -2.06320
C         -1.68420       -1.14260       -1.87190
S         -1.90870       -2.01540       -0.39150
C         -3.32820       -2.82250       -0.96510
C         -3.63880       -2.39470       -2.25970
C         -2.70380       -1.44570       -2.77670
C         -2.86350       -0.96980       -4.09550
C         -3.89800       -1.39980       -4.87160
C         -4.07880       -0.94840       -6.28500
C         -4.84640       -2.32950       -4.33750
O         -5.84750       -2.66710       -5.20240
C         -6.82660       -3.57650       -4.77120
C         -4.71850       -2.81650       -3.06600
C         -4.05630       -3.76680       -0.17890
C         -3.69170       -4.31550        0.99200
C         -2.38490       -4.15430        1.64130
C         -2.26390       -3.61730        2.92900
C         -3.49970       -3.22900        3.69540
C         -4.31700       -2.12580        3.02250
C         -0.99090       -3.51090        3.49630
C          0.11850       -3.99620        2.80260
C         -0.00960       -4.53870        1.54050
C         -1.25910       -4.60900        0.95890
C         -0.71010       -2.94690        4.83010
C         -0.93020       -1.70800        5.26550
C         -1.64330       -0.62470        4.56990
C         -1.28810       -0.12790        3.31390
C          0.01270       -0.51510        2.66850
C          1.07210        0.55570        2.94850
C         -2.12480        0.81280        2.69020
C         -3.23240        1.31080        3.37700
C         -3.52270        0.88640        4.65840
C         -2.74170       -0.08930        5.24320
C         -1.87960        1.27080        1.32390
C         -2.86840        1.52450        0.45990
C         -2.69160        2.05200       -0.88840
C         -3.62680        1.79770       -1.90430
C         -4.79510        0.88130       -1.64370
C         -6.01210        1.65530       -1.12860
C         -3.46080        2.39610       -3.16150
C         -2.36050        3.22420       -3.38680
C         -1.43460        3.46140       -2.39150
C         -1.59940        2.87960       -1.15110
C         -4.44150        2.21680       -4.23360
C         -4.18790        2.33090       -5.53080
H         10.79370        1.76610        0.99490
H          9.61500        3.16420       -0.52180
H          7.89990        2.94560       -0.86500
H          9.08100        4.01420        1.74950
H          8.27890        4.98500        0.51000
H          7.36030        3.80030        1.44480
H          6.85900       -1.15120        1.35170
H          9.02070       -1.91250        2.22620
H         11.00190       -0.43900        2.06140
H          6.05370        2.21670        0.24660
H          5.61690       -0.70250       -0.50320
H          3.87200       -1.26960        0.66410
H          2.12540       -1.40470        0.62970
H          3.98930       -2.39410       -1.58130
H          3.17230       -3.40650       -0.38540
H          2.23170       -2.52450       -1.59420
H          0.77640        1.98350       -2.49050
H          2.80180        3.35870       -2.71980
H          4.92410        2.58350       -1.74320
H          0.48530       -1.06750       -0.43480
H         -0.55720        0.31580       -2.94060
H         -2.15260       -0.26150       -4.49230
H         -4.02150       -1.80340       -6.95760
H         -5.06270       -0.50130       -6.41280
H         -3.31680       -0.22470       -6.55860
H         -7.37730       -3.19470       -3.90470
H         -7.51200       -3.69350       -5.60930
H         -6.39070       -4.54990       -4.52230
H         -5.42310       -3.52620       -2.66440
H         -5.02590       -4.03150       -0.58290
H         -4.39370       -4.96540        1.50060
H         -3.21220       -2.90290        4.69470
H         -4.13160       -4.11680        3.80720
H         -4.82960       -2.50200        2.14170
H         -5.06050       -1.73820        3.71540
H         -3.67090       -1.30900        2.71670
H          1.09390       -3.93520        3.26660
H          0.85790       -4.91080        1.01560
H         -1.37920       -5.03590       -0.02630
H         -0.18460       -3.63120        5.48830
H         -0.64090       -1.46710        6.28290
H          0.36820       -1.46180        3.06560
H         -0.13120       -0.63440        1.59510
H          2.00860        0.30600        2.45440
H          0.74970        1.53270        2.59650
H          1.25390        0.62710        4.01890
H         -3.84870        2.06430        2.90970
H         -4.36240        1.30550        5.19340
H         -2.98370       -0.45690        6.23080
H         -0.85390        1.37060        1.00330
H         -3.88490        1.34000        0.77580
H         -4.51250        0.12430       -0.91080
H         -5.05970        0.35100       -2.55960
H         -6.33300        2.40080       -1.85250
H         -5.77660        2.17430       -0.20220
H         -6.84040        0.97470       -0.94170
H         -2.25070        3.71120       -4.34380
H         -0.59780        4.12020       -2.57530
H         -0.89230        3.09180       -0.36370
H         -5.45330        1.99490       -3.92700
H         -4.96560        2.22050       -6.26700
H         -3.20160        2.52710       -5.91650
