250

C          9.33590      -15.08450       -2.34300
S          9.33870      -14.19980       -3.80180
C          9.55280      -12.68100       -2.97400
C          9.63030      -12.89510       -1.59120
C          9.49700      -14.27610       -1.23920
C          9.53750      -14.65490        0.12450
C          9.70530      -13.71770        1.09660
C          9.74820      -14.07320        2.54840
C          9.85510      -12.33760        0.73530
O         10.02210      -11.49910        1.79430
C         10.19970      -10.12600        1.54590
C          9.82590      -11.93890       -0.57540
C          9.60320      -11.45010       -3.66100
C          9.54830      -11.32970       -5.01480
C          9.54040      -10.15380       -5.79560
S          9.22960      -10.36180       -7.49360
C          9.14990       -8.65320       -7.80250
C          9.47140       -7.94870       -6.63580
C          9.68540       -8.78620       -5.49840
C         10.02920       -8.17320       -4.27700
C         10.11360       -6.81500       -4.16100
C         10.49300       -6.16010       -2.87120
C          9.88350       -5.99060       -5.30230
O          9.97240       -4.65180       -5.07200
C          9.66080       -3.77390       -6.12460
C          9.61140       -6.55040       -6.52250
C          8.79400       -8.21360       -9.11010
C          8.04010       -7.14850       -9.48730
C          7.25490       -6.30220       -8.65240
C          6.89420       -6.47930       -7.34620
C          6.10030       -5.44200       -6.81230
C          5.69330       -5.28280       -5.47500
C          6.12050       -6.24060       -4.44880
C          6.73230       -5.79310       -3.27950
C          7.20370       -6.68950       -2.34530
C          7.11410       -8.06300       -2.55190
S          7.85940       -9.11370       -1.34030
C          6.69830      -10.51700       -1.16890
C          5.31420      -10.05250       -0.76590
C          6.50290       -8.49940       -3.72130
F          6.39190       -9.81750       -3.99920
C          5.98580       -7.61210       -4.64260
C          4.95410       -4.14730       -5.18660
C          4.60340       -3.18380       -6.16510
C          5.05850       -3.31600       -7.49050
C          4.74590       -2.29440       -8.49510
C          4.94790       -0.94300       -8.22460
C          4.61170        0.02860       -9.14590
C          4.05020       -0.31510      -10.37050
S          3.55880        0.83450      -11.61250
C          3.29970        2.38800      -10.68510
C          2.14430        2.29150       -9.70750
C          3.88920       -1.67430      -10.64410
C          4.22600       -2.65350       -9.73670
F          3.36890       -2.04660      -11.82970
C          5.80150       -4.44890       -7.78070
S          6.55190       -4.82690       -9.31150
C          3.76250       -2.17590       -5.63220
C          3.49260       -2.32970       -4.30500
S          4.27250       -3.74860       -3.62920
C          2.66970       -1.50470       -3.48650
C          2.35780       -1.67570       -2.17090
C          1.46750       -0.69550       -1.66490
C          0.92220       -0.60550       -0.37370
C          1.22900       -1.59860        0.66270
C          1.08270       -2.96410        0.42340
C          1.35530       -3.88210        1.41450
C          1.79980       -3.48240        2.67390
S          2.16570       -4.75790        3.84220
C          1.60570       -4.07870        5.44790
C          0.13990       -3.69640        5.42520
C          1.96710       -2.11780        2.88860
F          2.44160       -1.65260        4.06500
C          1.67010       -1.18580        1.91520
C          0.06830        0.45960       -0.13050
C         -0.26880        1.41910       -1.11650
C          0.27060        1.32660       -2.41120
C         -0.09540        2.30110       -3.44630
C          0.87460        2.97960       -4.18190
C          0.51270        3.94280       -5.09870
C         -0.82540        4.26020       -5.33370
S         -1.16320        5.52160       -6.52030
C         -2.72600        6.28770       -5.92650
C         -2.83030        7.69080       -6.48930
C         -1.78430        3.53060       -4.63630
C         -1.43480        2.58000       -3.69940
F         -3.10420        3.72700       -4.85310
C          1.13600        0.27220       -2.64750
S          1.90050       -0.08510       -4.17400
C         -1.16730        2.39280       -0.61920
C         -1.55340        2.17580        0.67180
S         -0.78020        0.76560        1.36340
C         -2.50710        2.94190        1.40830
C         -3.19890        4.02690        0.95330
C         -4.13300        4.53780        1.88590
C         -5.00120        5.62910        1.71490
C         -4.95420        6.43180        0.48580
C         -3.75120        6.97380        0.04040
C         -3.68470        7.69310       -1.13660
C         -4.82140        7.89710       -1.91040
S         -4.84270        8.74990       -3.45420
C         -3.42430        9.89700       -3.32900
C         -3.61830       10.92580       -2.23250
C         -6.02080        7.35150       -1.45120
F         -7.13830        7.51740       -2.18180
C         -6.10160        6.63750       -0.27540
C         -5.89360        5.87680        2.74450
C         -5.92770        5.11020        3.93690
C         -5.02220        4.05320        4.13000
C         -4.99100        3.30080        5.38950
C         -4.92220        3.97030        6.61150
C         -4.89230        3.26890        7.79620
C         -4.92690        1.87460        7.81570
S         -4.85790        1.09080        9.39450
C         -5.85280       -0.43920        9.17310
C         -6.38830       -0.87140       10.52390
C         -4.96420        1.21960        6.58830
C         -5.00580        1.91050        5.39400
F         -4.95850       -0.13090        6.52260
C         -4.15750        3.77780        3.08140
S         -2.97180        2.49850        3.03680
C         -6.96970        5.53070        4.80140
C         -7.67610        6.59560        4.32920
S         -7.09040        7.14630        2.77060
C         -8.80040        7.22890        4.93900
C         -9.38580        8.41080        4.60140
C        -10.51570        8.73350        5.39820
C        -11.31170        9.88840        5.34760
C        -11.06950       10.95280        4.36700
C        -10.95760       12.27870        4.77440
C        -10.73590       13.29190        3.86250
C        -10.63350       13.01640        2.50390
S        -10.34160       14.20620        1.23840
C        -10.70940       15.80610        2.03800
C        -12.18760       15.97820        2.33130
C        -10.74330       11.68110        2.10960
F        -10.64460       11.37650        0.80090
C        -10.95400       10.66070        3.00910
C        -12.34160        9.97490        6.27460
C        -12.61730        8.96580        7.22750
C        -11.81190        7.81930        7.28970
C        -12.04630        6.76070        8.28000
C        -12.13550        5.42490        7.89270
C        -12.35990        4.43660        8.82660
C        -12.48920        4.73410       10.18170
S        -12.72190        3.37700       11.29310
C        -13.96380        3.99470       12.48860
C        -15.24610        4.42140       11.80310
C        -12.36770        6.06840       10.55740
C        -12.16680        7.07130        9.63060
F        -12.43930        6.43210       11.85750
C        -10.77900        7.73400        6.36760
S         -9.61480        6.43840        6.27650
C        -13.77760        9.27520        7.99870
C        -14.33610       10.45370        7.65820
S        -13.50260       11.27420        6.38290
H          9.21650      -16.14930       -2.36770
H          9.43240      -15.69880        0.37990
H          8.96030      -13.54740        3.08530
H         10.69750      -13.76130        2.98100
H          9.62490      -15.14360        2.68830
H         10.29880       -9.66070        2.52540
H         11.10690       -9.93960        0.96220
H          9.34130       -9.69320        1.02250
H          9.94530      -10.90320       -0.84560
H          9.65930      -10.57620       -3.03320
H          9.45880      -12.24660       -5.58740
H         10.25220       -8.77690       -3.41380
H          9.83200       -5.32060       -2.67020
H         10.44280       -6.86900       -2.04900
H         11.50730       -5.76720       -2.93910
H          8.65020       -3.95200       -6.50680
H         10.37830       -3.85710       -6.94710
H          9.71620       -2.77210       -5.70110
H          9.51470       -5.95250       -7.41180
H          9.14330       -8.86090       -9.90690
H          7.96740       -6.94040      -10.54670
H          7.17640       -7.34520       -6.78470
H          6.85200       -4.73440       -3.10970
H          7.66880       -6.33880       -1.43760
H          7.15330      -11.13240       -0.39210
H          6.69120      -11.07930       -2.10010
H          4.67200      -10.91640       -0.60700
H          5.35620       -9.47360        0.15490
H          4.86990       -9.43290       -1.54320
H          5.47700       -8.00710       -5.50820
H          5.39450       -0.64880       -7.28670
H          4.79500        1.06310       -8.90370
H          3.08540        3.11430      -11.46900
H          4.23360        2.66910      -10.19970
H          1.98980        3.25150       -9.21880
H          2.33830        1.54120       -8.94360
H          1.23140        2.01880      -10.23150
H          4.05290       -3.68660       -9.99270
H          3.34390       -1.37550       -6.21590
H          2.75900       -2.48100       -1.58190
H          0.72070       -3.30300       -0.53520
H          1.22690       -4.93750        1.23080
H          1.78750       -4.90150        6.13970
H          2.24280       -3.24010        5.72000
H         -0.16800       -3.37220        6.41720
H         -0.47240       -4.54540        5.12830
H         -0.03980       -2.87990        4.72830
H          1.82120       -0.14090        2.13740
H          1.91920        2.77360       -4.00720
H          1.26720        4.48400       -5.64810
H         -3.56090        5.67190       -6.25560
H         -2.68670        6.30220       -4.83820
H         -3.74910        8.15250       -6.13440
H         -1.98350        8.29600       -6.17220
H         -2.84770        7.66580       -7.57630
H         -2.22030        2.03930       -3.19420
H         -1.51270        3.22540       -1.20290
H         -3.07240        4.43870       -0.03060
H         -2.85670        6.83930        0.63030
H         -2.73290        8.08800       -1.45520
H         -3.39790       10.37300       -4.30910
H         -2.50970        9.31940       -3.20010
H         -3.67600       10.44920       -1.25580
H         -2.78460       11.62540       -2.22930
H         -4.53870       11.48100       -2.39780
H         -7.05330        6.22970        0.02610
H         -4.87780        5.04870        6.62680
H         -4.84150        3.79030        8.73950
H         -6.66380       -0.19910        8.48740
H         -5.21410       -1.20600        8.73700
H         -6.97540       -1.78030       10.41180
H         -7.02060       -0.09590       10.95010
H         -5.57040       -1.06740       11.21360
H         -5.05690        1.34790        4.47510
H         -7.20090        5.04960        5.73510
H         -9.00590        9.04190        3.81810
H        -11.02170       12.52150        5.82400
H        -10.63520       14.30200        4.22430
H        -10.09230       15.90250        2.93050
H        -10.37220       16.53820        1.30420
H        -12.54120       15.21710        3.02370
H        -12.76320       15.89860        1.41220
H        -12.36600       16.95800        2.77030
H        -11.05610        9.65090        2.64390
H        -12.05620        5.16380        6.84900
H        -12.44170        3.40530        8.52090
H        -13.52480        4.80030       13.07280
H        -14.13230        3.13600       13.13850
H        -15.98320        4.70860       12.55020
H        -15.07100        5.27300       11.14790
H        -15.65060        3.60560       11.20740
H        -12.06760        8.08810        9.97860
H        -14.17420        8.62510        8.75710
H        -15.20770       10.91610        8.07870
