
  xtb     03042217203D
 energy: -426.645225908405 gnorm: 0.000327822313 xtb: 6.4.1 (unknown)
250273  0     0  0            999 V2000
    1.9830    8.5508   -4.9171 C   0  0  0  0  0  0  0  0  0  0  0  0
    0.9594    7.7647   -4.5285 C   0  0  0  0  0  0  0  0  0  0  0  0
    0.9418    7.5308   -3.1215 C   0  0  0  0  0  0  0  0  0  0  0  0
    0.0358    6.7537   -2.3846 C   0  0  0  0  0  0  0  0  0  0  0  0
   -1.0868    6.0765   -3.0541 C   0  0  0  0  0  0  0  0  0  0  0  0
   -1.2140    4.6899   -3.0323 C   0  0  0  0  0  0  0  0  0  0  0  0
   -2.2309    4.0713   -3.7297 C   0  0  0  0  0  0  0  0  0  0  0  0
   -3.1892    4.8083   -4.4218 C   0  0  0  0  0  0  0  0  0  0  0  0
   -4.5059    3.9066   -5.1859 S   0  0  0  0  0  0  0  0  0  0  0  0
   -4.7519    4.7580   -6.7884 C   0  0  0  0  0  0  0  0  0  0  0  0
   -3.4860    4.7711   -7.6214 C   0  0  0  0  0  0  0  0  0  0  0  0
   -3.0738    6.1948   -4.3968 C   0  0  0  0  0  0  0  0  0  0  0  0
   -3.9876    6.9801   -5.0111 F   0  0  0  0  0  0  0  0  0  0  0  0
   -2.0272    6.8247   -3.7540 C   0  0  0  0  0  0  0  0  0  0  0  0
    0.2695    6.6475   -1.0246 C   0  0  0  0  0  0  0  0  0  0  0  0
    1.3435    7.2999   -0.3677 C   0  0  0  0  0  0  0  0  0  0  0  0
    2.2429    8.0889   -1.1033 C   0  0  0  0  0  0  0  0  0  0  0  0
    3.3561    8.7945   -0.4561 C   0  0  0  0  0  0  0  0  0  0  0  0
    4.6625    8.6712   -0.9273 C   0  0  0  0  0  0  0  0  0  0  0  0
    5.6955    9.3506   -0.3204 C   0  0  0  0  0  0  0  0  0  0  0  0
    5.4755   10.1805    0.7786 C   0  0  0  0  0  0  0  0  0  0  0  0
    6.8898   10.9636    1.4855 S   0  0  0  0  0  0  0  0  0  0  0  0
    6.2407   12.5456    2.1593 C   0  0  0  0  0  0  0  0  0  0  0  0
    7.3856   13.5330    2.2691 C   0  0  0  0  0  0  0  0  0  0  0  0
    4.1697   10.2810    1.2491 C   0  0  0  0  0  0  0  0  0  0  0  0
    3.1241    9.6134    0.6443 C   0  0  0  0  0  0  0  0  0  0  0  0
    3.8743   11.0398    2.3304 F   0  0  0  0  0  0  0  0  0  0  0  0
    2.0249    8.1700   -2.4728 C   0  0  0  0  0  0  0  0  0  0  0  0
    2.9986    9.0638   -3.6137 S   0  0  0  0  0  0  0  0  0  0  0  0
    1.3587    7.0190    1.0203 C   0  0  0  0  0  0  0  0  0  0  0  0
    0.3265    6.2290    1.4446 C   0  0  0  0  0  0  0  0  0  0  0  0
   -0.7098    5.7491    0.1058 S   0  0  0  0  0  0  0  0  0  0  0  0
    0.1038    5.7825    2.7762 C   0  0  0  0  0  0  0  0  0  0  0  0
    1.4131    5.8536    3.9146 S   0  0  0  0  0  0  0  0  0  0  0  0
    0.4994    5.0672    5.1579 C   0  0  0  0  0  0  0  0  0  0  0  0
   -0.8080    4.8405    4.7278 C   0  0  0  0  0  0  0  0  0  0  0  0
   -1.0335    5.2365    3.3745 C   0  0  0  0  0  0  0  0  0  0  0  0
   -2.3250    5.0790    2.8269 C   0  0  0  0  0  0  0  0  0  0  0  0
   -3.3322    4.5094    3.5488 C   0  0  0  0  0  0  0  0  0  0  0  0
   -4.6995    4.3143    2.9774 C   0  0  0  0  0  0  0  0  0  0  0  0
   -3.0870    4.0895    4.8965 C   0  0  0  0  0  0  0  0  0  0  0  0
   -4.1512    3.5100    5.5158 O   0  0  0  0  0  0  0  0  0  0  0  0
   -3.9685    2.9916    6.8080 C   0  0  0  0  0  0  0  0  0  0  0  0
   -1.8674    4.2910    5.4818 C   0  0  0  0  0  0  0  0  0  0  0  0
    1.1183    4.7563    6.4154 C   0  0  0  0  0  0  0  0  0  0  0  0
    0.9524    3.6219    7.1265 C   0  0  0  0  0  0  0  0  0  0  0  0
    0.2725    2.4369    6.6799 C   0  0  0  0  0  0  0  0  0  0  0  0
   -0.3571    1.4979    7.4448 C   0  0  0  0  0  0  0  0  0  0  0  0
   -0.9819    0.4673    6.6924 C   0  0  0  0  0  0  0  0  0  0  0  0
   -1.7357   -0.6309    7.1428 C   0  0  0  0  0  0  0  0  0  0  0  0
   -2.0144   -0.8492    8.5680 C   0  0  0  0  0  0  0  0  0  0  0  0
   -2.5521    0.1598    9.3657 C   0  0  0  0  0  0  0  0  0  0  0  0
   -2.8094   -0.0622   10.7012 C   0  0  0  0  0  0  0  0  0  0  0  0
   -2.5507   -1.2954   11.2970 C   0  0  0  0  0  0  0  0  0  0  0  0
   -2.9679   -1.4656   13.0073 S   0  0  0  0  0  0  0  0  0  0  0  0
   -1.6304   -2.5056   13.7013 C   0  0  0  0  0  0  0  0  0  0  0  0
   -0.2624   -1.8898   13.4880 C   0  0  0  0  0  0  0  0  0  0  0  0
   -2.0429   -2.3024   10.4821 C   0  0  0  0  0  0  0  0  0  0  0  0
   -1.7993   -3.5369   10.9746 F   0  0  0  0  0  0  0  0  0  0  0  0
   -1.7651   -2.0888    9.1474 C   0  0  0  0  0  0  0  0  0  0  0  0
   -2.2151   -1.4968    6.1708 C   0  0  0  0  0  0  0  0  0  0  0  0
   -2.0031   -1.3172    4.7802 C   0  0  0  0  0  0  0  0  0  0  0  0
   -1.2671   -0.2108    4.3301 C   0  0  0  0  0  0  0  0  0  0  0  0
   -1.0197    0.0904    2.9136 C   0  0  0  0  0  0  0  0  0  0  0  0
   -1.3371    1.3484    2.4016 C   0  0  0  0  0  0  0  0  0  0  0  0
   -1.0055    1.6836    1.1074 C   0  0  0  0  0  0  0  0  0  0  0  0
   -0.3627    0.7757    0.2686 C   0  0  0  0  0  0  0  0  0  0  0  0
    0.0185    1.3104   -1.3767 S   0  0  0  0  0  0  0  0  0  0  0  0
    1.6903    0.6355   -1.6744 C   0  0  0  0  0  0  0  0  0  0  0  0
    2.6871    1.1043   -0.6345 C   0  0  0  0  0  0  0  0  0  0  0  0
   -0.1036   -0.4931    0.7753 C   0  0  0  0  0  0  0  0  0  0  0  0
   -0.4083   -0.8348    2.0779 C   0  0  0  0  0  0  0  0  0  0  0  0
    0.4800   -1.4439    0.0133 F   0  0  0  0  0  0  0  0  0  0  0  0
   -0.7673    0.6384    5.3035 C   0  0  0  0  0  0  0  0  0  0  0  0
    0.2137    2.0341    4.9738 S   0  0  0  0  0  0  0  0  0  0  0  0
   -2.6544   -2.3094    4.0120 C   0  0  0  0  0  0  0  0  0  0  0  0
   -3.3685   -3.2158    4.7484 C   0  0  0  0  0  0  0  0  0  0  0  0
   -3.2309   -2.8831    6.4698 S   0  0  0  0  0  0  0  0  0  0  0  0
   -4.1253   -4.3065    4.2411 C   0  0  0  0  0  0  0  0  0  0  0  0
   -3.8879   -4.8044    2.5940 S   0  0  0  0  0  0  0  0  0  0  0  0
   -5.0761   -6.0614    2.6910 C   0  0  0  0  0  0  0  0  0  0  0  0
   -5.6524   -6.0761    3.9733 C   0  0  0  0  0  0  0  0  0  0  0  0
   -5.1049   -5.0946    4.8535 C   0  0  0  0  0  0  0  0  0  0  0  0
   -5.5978   -5.0066    6.1730 C   0  0  0  0  0  0  0  0  0  0  0  0
   -6.5721   -5.8497    6.6168 C   0  0  0  0  0  0  0  0  0  0  0  0
   -7.1064   -5.7778    8.0100 C   0  0  0  0  0  0  0  0  0  0  0  0
   -7.1096   -6.8370    5.7329 C   0  0  0  0  0  0  0  0  0  0  0  0
   -8.0739   -7.6201    6.2854 O   0  0  0  0  0  0  0  0  0  0  0  0
   -8.6666   -8.6213    5.4969 C   0  0  0  0  0  0  0  0  0  0  0  0
   -6.6608   -6.9423    4.4430 C   0  0  0  0  0  0  0  0  0  0  0  0
   -5.3608   -7.0062    1.6732 C   0  0  0  0  0  0  0  0  0  0  0  0
   -4.7690   -7.2823    0.4877 C   0  0  0  0  0  0  0  0  0  0  0  0
   -3.6972   -6.6272   -0.2013 C   0  0  0  0  0  0  0  0  0  0  0  0
   -3.4161   -5.3108   -0.4067 C   0  0  0  0  0  0  0  0  0  0  0  0
   -2.2604   -5.0806   -1.2018 C   0  0  0  0  0  0  0  0  0  0  0  0
   -1.6976   -3.8527   -1.5942 C   0  0  0  0  0  0  0  0  0  0  0  0
   -2.3033   -2.5695   -1.2250 C   0  0  0  0  0  0  0  0  0  0  0  0
   -2.7167   -2.3004    0.0786 C   0  0  0  0  0  0  0  0  0  0  0  0
   -3.2935   -1.0917    0.3983 C   0  0  0  0  0  0  0  0  0  0  0  0
   -3.4850   -0.0942   -0.5592 C   0  0  0  0  0  0  0  0  0  0  0  0
   -4.2604    1.3833    0.0038 S   0  0  0  0  0  0  0  0  0  0  0  0
   -3.7919    2.6503   -1.2362 C   0  0  0  0  0  0  0  0  0  0  0  0
   -4.0533    4.0269   -0.6635 C   0  0  0  0  0  0  0  0  0  0  0  0
   -3.0777   -0.3799   -1.8591 C   0  0  0  0  0  0  0  0  0  0  0  0
   -3.2593    0.4991   -2.8685 F   0  0  0  0  0  0  0  0  0  0  0  0
   -2.4910   -1.5847   -2.1885 C   0  0  0  0  0  0  0  0  0  0  0  0
   -0.5445   -3.9135   -2.3664 C   0  0  0  0  0  0  0  0  0  0  0  0
    0.0556   -5.1314   -2.7687 C   0  0  0  0  0  0  0  0  0  0  0  0
   -0.5278   -6.3585   -2.4114 C   0  0  0  0  0  0  0  0  0  0  0  0
    0.0532   -7.6226   -2.8820 C   0  0  0  0  0  0  0  0  0  0  0  0
   -0.7237   -8.5513   -3.5715 C   0  0  0  0  0  0  0  0  0  0  0  0
   -0.1578   -9.7011   -4.0815 C   0  0  0  0  0  0  0  0  0  0  0  0
    1.2014   -9.9632   -3.9350 C   0  0  0  0  0  0  0  0  0  0  0  0
    1.8611  -11.4166   -4.7059 S   0  0  0  0  0  0  0  0  0  0  0  0
    2.9139  -12.1410   -3.3934 C   0  0  0  0  0  0  0  0  0  0  0  0
    2.1165  -12.4571   -2.1445 C   0  0  0  0  0  0  0  0  0  0  0  0
    1.9653   -9.0293   -3.2437 C   0  0  0  0  0  0  0  0  0  0  0  0
    1.4080   -7.8882   -2.7046 C   0  0  0  0  0  0  0  0  0  0  0  0
    3.2984   -9.2042   -3.0955 F   0  0  0  0  0  0  0  0  0  0  0  0
   -1.6736   -6.2968   -1.6373 C   0  0  0  0  0  0  0  0  0  0  0  0
   -2.5556   -7.6739   -1.0415 S   0  0  0  0  0  0  0  0  0  0  0  0
    1.2264   -4.9202   -3.5344 C   0  0  0  0  0  0  0  0  0  0  0  0
    1.5572   -3.6040   -3.6790 C   0  0  0  0  0  0  0  0  0  0  0  0
    0.3870   -2.5494   -2.9231 S   0  0  0  0  0  0  0  0  0  0  0  0
    2.7197   -3.0993   -4.3383 C   0  0  0  0  0  0  0  0  0  0  0  0
    3.6851   -3.8444   -4.9489 C   0  0  0  0  0  0  0  0  0  0  0  0
    4.7342   -3.0754   -5.5110 C   0  0  0  0  0  0  0  0  0  0  0  0
    5.8650   -3.5352   -6.2062 C   0  0  0  0  0  0  0  0  0  0  0  0
    6.0695   -4.9721   -6.4236 C   0  0  0  0  0  0  0  0  0  0  0  0
    5.0504   -5.7748   -6.9310 C   0  0  0  0  0  0  0  0  0  0  0  0
    5.2038   -7.1427   -7.0445 C   0  0  0  0  0  0  0  0  0  0  0  0
    6.3878   -7.7602   -6.6549 C   0  0  0  0  0  0  0  0  0  0  0  0
    6.6805   -9.4929   -6.7102 S   0  0  0  0  0  0  0  0  0  0  0  0
    4.9887  -10.1926   -6.8099 C   0  0  0  0  0  0  0  0  0  0  0  0
    5.0666  -11.6890   -6.5774 C   0  0  0  0  0  0  0  0  0  0  0  0
    7.4203   -6.9377   -6.1990 C   0  0  0  0  0  0  0  0  0  0  0  0
    8.5924   -7.4975   -5.8392 F   0  0  0  0  0  0  0  0  0  0  0  0
    7.2778   -5.5742   -6.0771 C   0  0  0  0  0  0  0  0  0  0  0  0
    6.7671   -2.5684   -6.6275 C   0  0  0  0  0  0  0  0  0  0  0  0
    6.5904   -1.1840   -6.3839 C   0  0  0  0  0  0  0  0  0  0  0  0
    5.4692   -0.7300   -5.6754 C   0  0  0  0  0  0  0  0  0  0  0  0
    5.2756    0.6859   -5.3369 C   0  0  0  0  0  0  0  0  0  0  0  0
    5.0805    1.0521   -4.0084 C   0  0  0  0  0  0  0  0  0  0  0  0
    4.8897    2.3710   -3.6514 C   0  0  0  0  0  0  0  0  0  0  0  0
    4.8611    3.3720   -4.6160 C   0  0  0  0  0  0  0  0  0  0  0  0
    4.5957    5.0803   -4.2687 S   0  0  0  0  0  0  0  0  0  0  0  0
    3.7499    5.0353   -2.6522 C   0  0  0  0  0  0  0  0  0  0  0  0
    2.4040    4.3457   -2.7379 C   0  0  0  0  0  0  0  0  0  0  0  0
    5.0738    2.9932   -5.9417 C   0  0  0  0  0  0  0  0  0  0  0  0
    5.2835    1.6815   -6.3096 C   0  0  0  0  0  0  0  0  0  0  0  0
    5.0698    3.9380   -6.9035 F   0  0  0  0  0  0  0  0  0  0  0  0
    4.5618   -1.6929   -5.2612 C   0  0  0  0  0  0  0  0  0  0  0  0
    3.0748   -1.3851   -4.3989 S   0  0  0  0  0  0  0  0  0  0  0  0
    7.6724   -0.4161   -6.9083 C   0  0  0  0  0  0  0  0  0  0  0  0
    8.5955   -1.1716   -7.5363 C   0  0  0  0  0  0  0  0  0  0  0  0
    8.2328   -2.8635   -7.5273 S   0  0  0  0  0  0  0  0  0  0  0  0
    2.2286    8.8716   -5.9102 H   0  0  0  0  0  0  0  0  0  0  0  0
    0.2366    7.3452   -5.2047 H   0  0  0  0  0  0  0  0  0  0  0  0
   -0.5006    4.0865   -2.4938 H   0  0  0  0  0  0  0  0  0  0  0  0
   -2.3014    2.9959   -3.7502 H   0  0  0  0  0  0  0  0  0  0  0  0
   -5.5320    4.1668   -7.2682 H   0  0  0  0  0  0  0  0  0  0  0  0
   -5.1305    5.7610   -6.6044 H   0  0  0  0  0  0  0  0  0  0  0  0
   -3.6919    5.2101   -8.5956 H   0  0  0  0  0  0  0  0  0  0  0  0
   -2.7090    5.3596   -7.1367 H   0  0  0  0  0  0  0  0  0  0  0  0
   -3.1128    3.7591   -7.7643 H   0  0  0  0  0  0  0  0  0  0  0  0
   -1.9726    7.9025   -3.7777 H   0  0  0  0  0  0  0  0  0  0  0  0
    4.8755    8.0346   -1.7720 H   0  0  0  0  0  0  0  0  0  0  0  0
    6.7041    9.2512   -0.6900 H   0  0  0  0  0  0  0  0  0  0  0  0
    5.7952   12.3491    3.1333 H   0  0  0  0  0  0  0  0  0  0  0  0
    5.4781   12.9015    1.4682 H   0  0  0  0  0  0  0  0  0  0  0  0
    7.0201   14.4752    2.6717 H   0  0  0  0  0  0  0  0  0  0  0  0
    8.1589   13.1480    2.9301 H   0  0  0  0  0  0  0  0  0  0  0  0
    7.8274   13.7165    1.2924 H   0  0  0  0  0  0  0  0  0  0  0  0
    2.1277    9.7507    1.0352 H   0  0  0  0  0  0  0  0  0  0  0  0
    2.1111    7.3902    1.6930 H   0  0  0  0  0  0  0  0  0  0  0  0
   -2.5200    5.4340    1.8273 H   0  0  0  0  0  0  0  0  0  0  0  0
   -5.4534    4.4778    3.7431 H   0  0  0  0  0  0  0  0  0  0  0  0
   -4.8707    4.9940    2.1475 H   0  0  0  0  0  0  0  0  0  0  0  0
   -4.8100    3.2912    2.6164 H   0  0  0  0  0  0  0  0  0  0  0  0
   -4.9101    2.5121    7.0718 H   0  0  0  0  0  0  0  0  0  0  0  0
   -3.1641    2.2477    6.8245 H   0  0  0  0  0  0  0  0  0  0  0  0
   -3.7485    3.7819    7.5339 H   0  0  0  0  0  0  0  0  0  0  0  0
   -1.6842    4.0369    6.5123 H   0  0  0  0  0  0  0  0  0  0  0  0
    1.7869    5.5131    6.8069 H   0  0  0  0  0  0  0  0  0  0  0  0
    1.3842    3.5609    8.1171 H   0  0  0  0  0  0  0  0  0  0  0  0
   -0.3985    1.5529    8.5185 H   0  0  0  0  0  0  0  0  0  0  0  0
   -2.7856    1.1201    8.9318 H   0  0  0  0  0  0  0  0  0  0  0  0
   -3.2241    0.7223   11.3151 H   0  0  0  0  0  0  0  0  0  0  0  0
   -1.6997   -3.5043   13.2761 H   0  0  0  0  0  0  0  0  0  0  0  0
   -1.8793   -2.5529   14.7615 H   0  0  0  0  0  0  0  0  0  0  0  0
    0.4922   -2.4930   13.9888 H   0  0  0  0  0  0  0  0  0  0  0  0
   -0.0173   -1.8449   12.4285 H   0  0  0  0  0  0  0  0  0  0  0  0
   -0.2300   -0.8807   13.8938 H   0  0  0  0  0  0  0  0  0  0  0  0
   -1.3509   -2.9007    8.5702 H   0  0  0  0  0  0  0  0  0  0  0  0
   -1.8440    2.0710    3.0221 H   0  0  0  0  0  0  0  0  0  0  0  0
   -1.2298    2.6689    0.7286 H   0  0  0  0  0  0  0  0  0  0  0  0
    1.9438    1.0041   -2.6685 H   0  0  0  0  0  0  0  0  0  0  0  0
    1.6273   -0.4488   -1.7162 H   0  0  0  0  0  0  0  0  0  0  0  0
    2.4305    0.7181    0.3505 H   0  0  0  0  0  0  0  0  0  0  0  0
    3.6801    0.7432   -0.8948 H   0  0  0  0  0  0  0  0  0  0  0  0
    2.7084    2.1909   -0.5798 H   0  0  0  0  0  0  0  0  0  0  0  0
   -0.1480   -1.8206    2.4315 H   0  0  0  0  0  0  0  0  0  0  0  0
   -2.6181   -2.3360    2.9394 H   0  0  0  0  0  0  0  0  0  0  0  0
   -5.2026   -4.2600    6.8423 H   0  0  0  0  0  0  0  0  0  0  0  0
   -6.6108   -4.9926    8.5738 H   0  0  0  0  0  0  0  0  0  0  0  0
   -8.1780   -5.5858    7.9897 H   0  0  0  0  0  0  0  0  0  0  0  0
   -6.9590   -6.7311    8.5149 H   0  0  0  0  0  0  0  0  0  0  0  0
   -9.1812   -8.1974    4.6283 H   0  0  0  0  0  0  0  0  0  0  0  0
   -9.3943   -9.1120    6.1413 H   0  0  0  0  0  0  0  0  0  0  0  0
   -7.9288   -9.3567    5.1594 H   0  0  0  0  0  0  0  0  0  0  0  0
   -7.0725   -7.6807    3.7754 H   0  0  0  0  0  0  0  0  0  0  0  0
   -6.1583   -7.6844    1.9492 H   0  0  0  0  0  0  0  0  0  0  0  0
   -5.1023   -8.1870   -0.0075 H   0  0  0  0  0  0  0  0  0  0  0  0
   -4.0554   -4.5217   -0.0575 H   0  0  0  0  0  0  0  0  0  0  0  0
   -2.5518   -3.0422    0.8446 H   0  0  0  0  0  0  0  0  0  0  0  0
   -3.6100   -0.8819    1.4086 H   0  0  0  0  0  0  0  0  0  0  0  0
   -4.3795    2.4873   -2.1379 H   0  0  0  0  0  0  0  0  0  0  0  0
   -2.7325    2.5098   -1.4425 H   0  0  0  0  0  0  0  0  0  0  0  0
   -3.7656    4.7822   -1.3914 H   0  0  0  0  0  0  0  0  0  0  0  0
   -3.4703    4.1730    0.2411 H   0  0  0  0  0  0  0  0  0  0  0  0
   -5.1078    4.1497   -0.4274 H   0  0  0  0  0  0  0  0  0  0  0  0
   -2.2154   -1.7491   -3.2183 H   0  0  0  0  0  0  0  0  0  0  0  0
   -1.7746   -8.3602   -3.7228 H   0  0  0  0  0  0  0  0  0  0  0  0
   -0.7614  -10.4145   -4.6205 H   0  0  0  0  0  0  0  0  0  0  0  0
    3.3042  -13.0487   -3.8533 H   0  0  0  0  0  0  0  0  0  0  0  0
    3.7397  -11.4632   -3.1891 H   0  0  0  0  0  0  0  0  0  0  0  0
    2.7596  -12.9421   -1.4128 H   0  0  0  0  0  0  0  0  0  0  0  0
    1.7141  -11.5481   -1.7001 H   0  0  0  0  0  0  0  0  0  0  0  0
    1.2882  -13.1228   -2.3780 H   0  0  0  0  0  0  0  0  0  0  0  0
    2.0406   -7.2112   -2.1512 H   0  0  0  0  0  0  0  0  0  0  0  0
    1.8019   -5.7189   -3.9625 H   0  0  0  0  0  0  0  0  0  0  0  0
    3.6635   -4.9172   -4.9847 H   0  0  0  0  0  0  0  0  0  0  0  0
    4.1283   -5.3193   -7.2598 H   0  0  0  0  0  0  0  0  0  0  0  0
    4.3913   -7.7304   -7.4403 H   0  0  0  0  0  0  0  0  0  0  0  0
    4.3872   -9.7095   -6.0407 H   0  0  0  0  0  0  0  0  0  0  0  0
    4.5812   -9.9770   -7.7976 H   0  0  0  0  0  0  0  0  0  0  0  0
    5.6703  -12.1649   -7.3465 H   0  0  0  0  0  0  0  0  0  0  0  0
    4.0650  -12.1132   -6.6010 H   0  0  0  0  0  0  0  0  0  0  0  0
    5.5145  -11.8985   -5.6088 H   0  0  0  0  0  0  0  0  0  0  0  0
    8.0977   -4.9960   -5.6817 H   0  0  0  0  0  0  0  0  0  0  0  0
    5.1011    0.2939   -3.2403 H   0  0  0  0  0  0  0  0  0  0  0  0
    4.7731    2.6158   -2.6087 H   0  0  0  0  0  0  0  0  0  0  0  0
    3.6250    6.0861   -2.3953 H   0  0  0  0  0  0  0  0  0  0  0  0
    4.4117    4.5788   -1.9167 H   0  0  0  0  0  0  0  0  0  0  0  0
    2.5115    3.3071   -3.0410 H   0  0  0  0  0  0  0  0  0  0  0  0
    1.9109    4.3798   -1.7684 H   0  0  0  0  0  0  0  0  0  0  0  0
    1.7744    4.8489   -3.4674 H   0  0  0  0  0  0  0  0  0  0  0  0
    5.4214    1.4416   -7.3524 H   0  0  0  0  0  0  0  0  0  0  0  0
    7.7440    0.6512   -6.8038 H   0  0  0  0  0  0  0  0  0  0  0  0
    9.4978   -0.8458   -8.0159 H   0  0  0  0  0  0  0  0  0  0  0  0
  1  2  2  0  0  0  0
  2  3  1  0  0  0  0
  3  4  2  0  0  0  0
  4  5  1  0  0  0  0
  5  6  2  0  0  0  0
  6  7  1  0  0  0  0
  7  8  2  0  0  0  0
  8  9  1  0  0  0  0
  9 10  1  0  0  0  0
 10 11  1  0  0  0  0
  8 12  1  0  0  0  0
 12 13  1  0  0  0  0
 12 14  2  0  0  0  0
  4 15  1  0  0  0  0
 15 16  2  0  0  0  0
 16 17  1  0  0  0  0
 17 18  1  0  0  0  0
 18 19  2  0  0  0  0
 19 20  1  0  0  0  0
 20 21  2  0  0  0  0
 21 22  1  0  0  0  0
 22 23  1  0  0  0  0
 23 24  1  0  0  0  0
 21 25  1  0  0  0  0
 25 26  2  0  0  0  0
 25 27  1  0  0  0  0
 17 28  2  0  0  0  0
 28 29  1  0  0  0  0
 16 30  1  0  0  0  0
 30 31  2  0  0  0  0
 31 32  1  0  0  0  0
 31 33  1  0  0  0  0
 33 34  1  0  0  0  0
 34 35  1  0  0  0  0
 35 36  2  0  0  0  0
 36 37  1  0  0  0  0
 37 38  1  0  0  0  0
 38 39  2  0  0  0  0
 39 40  1  0  0  0  0
 39 41  1  0  0  0  0
 41 42  1  0  0  0  0
 42 43  1  0  0  0  0
 41 44  2  0  0  0  0
 35 45  1  0  0  0  0
 45 46  2  0  0  0  0
 46 47  1  0  0  0  0
 47 48  2  0  0  0  0
 48 49  1  0  0  0  0
 49 50  2  0  0  0  0
 50 51  1  0  0  0  0
 51 52  2  0  0  0  0
 52 53  1  0  0  0  0
 53 54  2  0  0  0  0
 54 55  1  0  0  0  0
 55 56  1  0  0  0  0
 56 57  1  0  0  0  0
 54 58  1  0  0  0  0
 58 59  1  0  0  0  0
 58 60  2  0  0  0  0
 50 61  1  0  0  0  0
 61 62  2  0  0  0  0
 62 63  1  0  0  0  0
 63 64  1  0  0  0  0
 64 65  2  0  0  0  0
 65 66  1  0  0  0  0
 66 67  2  0  0  0  0
 67 68  1  0  0  0  0
 68 69  1  0  0  0  0
 69 70  1  0  0  0  0
 67 71  1  0  0  0  0
 71 72  2  0  0  0  0
 71 73  1  0  0  0  0
 63 74  2  0  0  0  0
 74 75  1  0  0  0  0
 62 76  1  0  0  0  0
 76 77  2  0  0  0  0
 77 78  1  0  0  0  0
 77 79  1  0  0  0  0
 79 80  1  0  0  0  0
 80 81  1  0  0  0  0
 81 82  2  0  0  0  0
 82 83  1  0  0  0  0
 83 84  1  0  0  0  0
 84 85  2  0  0  0  0
 85 86  1  0  0  0  0
 85 87  1  0  0  0  0
 87 88  1  0  0  0  0
 88 89  1  0  0  0  0
 87 90  2  0  0  0  0
 81 91  1  0  0  0  0
 91 92  2  0  0  0  0
 92 93  1  0  0  0  0
 93 94  2  0  0  0  0
 94 95  1  0  0  0  0
 95 96  2  0  0  0  0
 96 97  1  0  0  0  0
 97 98  2  0  0  0  0
 98 99  1  0  0  0  0
 99100  2  0  0  0  0
100101  1  0  0  0  0
101102  1  0  0  0  0
102103  1  0  0  0  0
100104  1  0  0  0  0
104105  1  0  0  0  0
104106  2  0  0  0  0
 96107  1  0  0  0  0
107108  2  0  0  0  0
108109  1  0  0  0  0
109110  1  0  0  0  0
110111  2  0  0  0  0
111112  1  0  0  0  0
112113  2  0  0  0  0
113114  1  0  0  0  0
114115  1  0  0  0  0
115116  1  0  0  0  0
113117  1  0  0  0  0
117118  2  0  0  0  0
117119  1  0  0  0  0
109120  2  0  0  0  0
120121  1  0  0  0  0
108122  1  0  0  0  0
122123  2  0  0  0  0
123124  1  0  0  0  0
123125  1  0  0  0  0
125126  2  0  0  0  0
126127  1  0  0  0  0
127128  2  0  0  0  0
128129  1  0  0  0  0
129130  2  0  0  0  0
130131  1  0  0  0  0
131132  2  0  0  0  0
132133  1  0  0  0  0
133134  1  0  0  0  0
134135  1  0  0  0  0
132136  1  0  0  0  0
136137  1  0  0  0  0
136138  2  0  0  0  0
128139  1  0  0  0  0
139140  2  0  0  0  0
140141  1  0  0  0  0
141142  1  0  0  0  0
142143  2  0  0  0  0
143144  1  0  0  0  0
144145  2  0  0  0  0
145146  1  0  0  0  0
146147  1  0  0  0  0
147148  1  0  0  0  0
145149  1  0  0  0  0
149150  2  0  0  0  0
149151  1  0  0  0  0
141152  2  0  0  0  0
152153  1  0  0  0  0
140154  1  0  0  0  0
154155  2  0  0  0  0
155156  1  0  0  0  0
 29  1  1  0  0  0  0
 37 33  2  0  0  0  0
 75 47  1  0  0  0  0
 83 79  2  0  0  0  0
121 93  1  0  0  0  0
153125  1  0  0  0  0
 28  3  1  0  0  0  0
 44 36  1  0  0  0  0
 74 49  1  0  0  0  0
 90 82  1  0  0  0  0
120 95  1  0  0  0  0
152127  1  0  0  0  0
 14  5  1  0  0  0  0
 32 15  1  0  0  0  0
 60 51  1  0  0  0  0
 78 61  1  0  0  0  0
106 97  1  0  0  0  0
124107  1  0  0  0  0
138129  1  0  0  0  0
156139  1  0  0  0  0
 26 18  1  0  0  0  0
 72 64  1  0  0  0  0
118110  1  0  0  0  0
150142  1  0  0  0  0
  1157  1  0  0  0  0
  2158  1  0  0  0  0
  6159  1  0  0  0  0
  7160  1  0  0  0  0
 10161  1  0  0  0  0
 10162  1  0  0  0  0
 11163  1  0  0  0  0
 11164  1  0  0  0  0
 11165  1  0  0  0  0
 14166  1  0  0  0  0
 19167  1  0  0  0  0
 20168  1  0  0  0  0
 23169  1  0  0  0  0
 23170  1  0  0  0  0
 24171  1  0  0  0  0
 24172  1  0  0  0  0
 24173  1  0  0  0  0
 26174  1  0  0  0  0
 30175  1  0  0  0  0
 38176  1  0  0  0  0
 40177  1  0  0  0  0
 40178  1  0  0  0  0
 40179  1  0  0  0  0
 43180  1  0  0  0  0
 43181  1  0  0  0  0
 43182  1  0  0  0  0
 44183  1  0  0  0  0
 45184  1  0  0  0  0
 46185  1  0  0  0  0
 48186  1  0  0  0  0
 52187  1  0  0  0  0
 53188  1  0  0  0  0
 56189  1  0  0  0  0
 56190  1  0  0  0  0
 57191  1  0  0  0  0
 57192  1  0  0  0  0
 57193  1  0  0  0  0
 60194  1  0  0  0  0
 65195  1  0  0  0  0
 66196  1  0  0  0  0
 69197  1  0  0  0  0
 69198  1  0  0  0  0
 70199  1  0  0  0  0
 70200  1  0  0  0  0
 70201  1  0  0  0  0
 72202  1  0  0  0  0
 76203  1  0  0  0  0
 84204  1  0  0  0  0
 86205  1  0  0  0  0
 86206  1  0  0  0  0
 86207  1  0  0  0  0
 89208  1  0  0  0  0
 89209  1  0  0  0  0
 89210  1  0  0  0  0
 90211  1  0  0  0  0
 91212  1  0  0  0  0
 92213  1  0  0  0  0
 94214  1  0  0  0  0
 98215  1  0  0  0  0
 99216  1  0  0  0  0
102217  1  0  0  0  0
102218  1  0  0  0  0
103219  1  0  0  0  0
103220  1  0  0  0  0
103221  1  0  0  0  0
106222  1  0  0  0  0
111223  1  0  0  0  0
112224  1  0  0  0  0
115225  1  0  0  0  0
115226  1  0  0  0  0
116227  1  0  0  0  0
116228  1  0  0  0  0
116229  1  0  0  0  0
118230  1  0  0  0  0
122231  1  0  0  0  0
126232  1  0  0  0  0
130233  1  0  0  0  0
131234  1  0  0  0  0
134235  1  0  0  0  0
134236  1  0  0  0  0
135237  1  0  0  0  0
135238  1  0  0  0  0
135239  1  0  0  0  0
138240  1  0  0  0  0
143241  1  0  0  0  0
144242  1  0  0  0  0
147243  1  0  0  0  0
147244  1  0  0  0  0
148245  1  0  0  0  0
148246  1  0  0  0  0
148247  1  0  0  0  0
150248  1  0  0  0  0
154249  1  0  0  0  0
155250  1  0  0  0  0
M  END
