
  xtb     03042201573D
 energy: -426.609634896838 gnorm: 0.000295620757 xtb: 6.4.1 (unknown)
250273  0     0  0            999 V2000
  -13.7482   -2.4236   12.6818 C   0  0  0  0  0  0  0  0  0  0  0  0
  -13.3686   -1.2020   12.2555 C   0  0  0  0  0  0  0  0  0  0  0  0
  -12.7138   -1.2323   10.9878 C   0  0  0  0  0  0  0  0  0  0  0  0
  -12.1789   -0.1589   10.2583 C   0  0  0  0  0  0  0  0  0  0  0  0
  -12.2975    1.2267   10.7310 C   0  0  0  0  0  0  0  0  0  0  0  0
  -11.1804    2.0550   10.8187 C   0  0  0  0  0  0  0  0  0  0  0  0
  -11.3014    3.3500   11.2744 C   0  0  0  0  0  0  0  0  0  0  0  0
  -12.5368    3.8783   11.6447 C   0  0  0  0  0  0  0  0  0  0  0  0
  -12.5672    5.5679   12.1666 S   0  0  0  0  0  0  0  0  0  0  0  0
  -13.7815    5.5953   13.5371 C   0  0  0  0  0  0  0  0  0  0  0  0
  -13.3934    4.6517   14.6576 C   0  0  0  0  0  0  0  0  0  0  0  0
  -13.6482    3.0505   11.5184 C   0  0  0  0  0  0  0  0  0  0  0  0
  -14.8881    3.5012   11.8144 F   0  0  0  0  0  0  0  0  0  0  0  0
  -13.5386    1.7438   11.0877 C   0  0  0  0  0  0  0  0  0  0  0  0
  -11.5314   -0.4722    9.0717 C   0  0  0  0  0  0  0  0  0  0  0  0
  -11.4420   -1.7951    8.5756 C   0  0  0  0  0  0  0  0  0  0  0  0
  -11.9972   -2.8648    9.2916 C   0  0  0  0  0  0  0  0  0  0  0  0
  -11.8958   -4.2296    8.7551 C   0  0  0  0  0  0  0  0  0  0  0  0
  -12.3887   -4.5198    7.4844 C   0  0  0  0  0  0  0  0  0  0  0  0
  -12.2152   -5.7729    6.9342 C   0  0  0  0  0  0  0  0  0  0  0  0
  -11.5351   -6.7673    7.6269 C   0  0  0  0  0  0  0  0  0  0  0  0
  -11.2796   -8.3445    6.8494 S   0  0  0  0  0  0  0  0  0  0  0  0
   -9.4477   -8.4053    6.8435 C   0  0  0  0  0  0  0  0  0  0  0  0
   -8.8541   -7.2995    5.9933 C   0  0  0  0  0  0  0  0  0  0  0  0
  -11.0900   -6.4797    8.9124 C   0  0  0  0  0  0  0  0  0  0  0  0
  -11.2609   -5.2319    9.4792 C   0  0  0  0  0  0  0  0  0  0  0  0
  -10.4511   -7.4212    9.6362 F   0  0  0  0  0  0  0  0  0  0  0  0
  -12.6037   -2.5571   10.4979 C   0  0  0  0  0  0  0  0  0  0  0  0
  -13.3402   -3.7015   11.5883 S   0  0  0  0  0  0  0  0  0  0  0  0
  -10.7094   -1.8604    7.3650 C   0  0  0  0  0  0  0  0  0  0  0  0
  -10.2651   -0.6493    6.9287 C   0  0  0  0  0  0  0  0  0  0  0  0
  -10.7488    0.6583    7.9928 S   0  0  0  0  0  0  0  0  0  0  0  0
   -9.4414   -0.4175    5.7881 C   0  0  0  0  0  0  0  0  0  0  0  0
   -8.9240    0.7546    5.3249 C   0  0  0  0  0  0  0  0  0  0  0  0
   -8.0645    0.5940    4.2065 C   0  0  0  0  0  0  0  0  0  0  0  0
   -7.3408    1.5859    3.5199 C   0  0  0  0  0  0  0  0  0  0  0  0
   -7.5179    3.0091    3.8284 C   0  0  0  0  0  0  0  0  0  0  0  0
   -6.4284    3.8471    4.0422 C   0  0  0  0  0  0  0  0  0  0  0  0
   -6.5996    5.1913    4.3134 C   0  0  0  0  0  0  0  0  0  0  0  0
   -7.8720    5.7487    4.3723 C   0  0  0  0  0  0  0  0  0  0  0  0
   -8.2374    7.4372    4.6964 S   0  0  0  0  0  0  0  0  0  0  0  0
   -6.5838    8.2099    4.8513 C   0  0  0  0  0  0  0  0  0  0  0  0
   -6.7660    9.6961    5.0962 C   0  0  0  0  0  0  0  0  0  0  0  0
   -8.9571    4.8954    4.1553 C   0  0  0  0  0  0  0  0  0  0  0  0
  -10.2050    5.4040    4.1995 F   0  0  0  0  0  0  0  0  0  0  0  0
   -8.8001    3.5550    3.8916 C   0  0  0  0  0  0  0  0  0  0  0  0
   -6.4635    1.1464    2.5381 C   0  0  0  0  0  0  0  0  0  0  0  0
   -6.3437   -0.2168    2.1750 C   0  0  0  0  0  0  0  0  0  0  0  0
   -7.1102   -1.2030    2.8162 C   0  0  0  0  0  0  0  0  0  0  0  0
   -6.9948   -2.6072    2.4027 C   0  0  0  0  0  0  0  0  0  0  0  0
   -7.1403   -2.9564    1.0597 C   0  0  0  0  0  0  0  0  0  0  0  0
   -6.9505   -4.2565    0.6463 C   0  0  0  0  0  0  0  0  0  0  0  0
   -6.6083   -5.2595    1.5516 C   0  0  0  0  0  0  0  0  0  0  0  0
   -6.3507   -6.8872    0.9215 S   0  0  0  0  0  0  0  0  0  0  0  0
   -4.9158   -7.4782    1.9070 C   0  0  0  0  0  0  0  0  0  0  0  0
   -4.1127   -8.4532    1.0702 C   0  0  0  0  0  0  0  0  0  0  0  0
   -6.5237   -4.9079    2.8958 C   0  0  0  0  0  0  0  0  0  0  0  0
   -6.7027   -3.6074    3.3233 C   0  0  0  0  0  0  0  0  0  0  0  0
   -6.2540   -5.8425    3.8351 F   0  0  0  0  0  0  0  0  0  0  0  0
   -7.9297   -0.7705    3.8433 C   0  0  0  0  0  0  0  0  0  0  0  0
   -8.9140   -1.7999    4.8447 S   0  0  0  0  0  0  0  0  0  0  0  0
   -5.3491   -0.4224    1.1923 C   0  0  0  0  0  0  0  0  0  0  0  0
   -4.7289    0.7238    0.7879 C   0  0  0  0  0  0  0  0  0  0  0  0
   -5.3759    2.1378    1.5943 S   0  0  0  0  0  0  0  0  0  0  0  0
   -3.6178    0.7792   -0.1072 C   0  0  0  0  0  0  0  0  0  0  0  0
   -3.0773   -0.2950   -0.7527 C   0  0  0  0  0  0  0  0  0  0  0  0
   -1.8886   -0.0004   -1.4590 C   0  0  0  0  0  0  0  0  0  0  0  0
   -1.0812   -0.8962   -2.1805 C   0  0  0  0  0  0  0  0  0  0  0  0
   -1.3982   -2.3283   -2.2220 C   0  0  0  0  0  0  0  0  0  0  0  0
   -1.4383   -3.0270   -3.4243 C   0  0  0  0  0  0  0  0  0  0  0  0
   -1.7740   -4.3670   -3.4635 C   0  0  0  0  0  0  0  0  0  0  0  0
   -2.0750   -5.0616   -2.2975 C   0  0  0  0  0  0  0  0  0  0  0  0
   -2.5579   -6.7525   -2.2037 S   0  0  0  0  0  0  0  0  0  0  0  0
   -2.1352   -7.4367   -3.8408 C   0  0  0  0  0  0  0  0  0  0  0  0
   -0.6373   -7.5524   -4.0479 C   0  0  0  0  0  0  0  0  0  0  0  0
   -2.0185   -4.3514   -1.0969 C   0  0  0  0  0  0  0  0  0  0  0  0
   -2.3063   -4.9910    0.0577 F   0  0  0  0  0  0  0  0  0  0  0  0
   -1.6845   -3.0183   -1.0436 C   0  0  0  0  0  0  0  0  0  0  0  0
    0.0281   -0.3557   -2.8095 C   0  0  0  0  0  0  0  0  0  0  0  0
    0.3623    1.0211   -2.7430 C   0  0  0  0  0  0  0  0  0  0  0  0
   -0.4510    1.9165   -2.0245 C   0  0  0  0  0  0  0  0  0  0  0  0
   -0.1444    3.3498   -1.9699 C   0  0  0  0  0  0  0  0  0  0  0  0
   -0.1270    4.0395   -0.7613 C   0  0  0  0  0  0  0  0  0  0  0  0
    0.1493    5.3919   -0.7137 C   0  0  0  0  0  0  0  0  0  0  0  0
    0.4052    6.1093   -1.8767 C   0  0  0  0  0  0  0  0  0  0  0  0
    0.7774    7.8299   -1.9473 S   0  0  0  0  0  0  0  0  0  0  0  0
    0.1122    8.4824   -0.3764 C   0  0  0  0  0  0  0  0  0  0  0  0
   -1.4002    8.3910   -0.3108 C   0  0  0  0  0  0  0  0  0  0  0  0
    0.3936    5.4038   -3.0812 C   0  0  0  0  0  0  0  0  0  0  0  0
    0.1264    4.0550   -3.1420 C   0  0  0  0  0  0  0  0  0  0  0  0
    0.6441    6.0620   -4.2305 F   0  0  0  0  0  0  0  0  0  0  0  0
   -1.5511    1.3732   -1.3780 C   0  0  0  0  0  0  0  0  0  0  0  0
   -2.7059    2.2451   -0.3976 S   0  0  0  0  0  0  0  0  0  0  0  0
    1.5949    1.2932   -3.3873 C   0  0  0  0  0  0  0  0  0  0  0  0
    2.1841    0.1895   -3.9333 C   0  0  0  0  0  0  0  0  0  0  0  0
    1.2297   -1.2587   -3.6913 S   0  0  0  0  0  0  0  0  0  0  0  0
    3.4426    0.1172   -4.6023 C   0  0  0  0  0  0  0  0  0  0  0  0
    4.2628    1.1527   -4.9466 C   0  0  0  0  0  0  0  0  0  0  0  0
    5.4788    0.7401   -5.5437 C   0  0  0  0  0  0  0  0  0  0  0  0
    6.5508    1.5472   -5.9684 C   0  0  0  0  0  0  0  0  0  0  0  0
    6.5220    3.0053   -5.8029 C   0  0  0  0  0  0  0  0  0  0  0  0
    6.8006    3.8553   -6.8720 C   0  0  0  0  0  0  0  0  0  0  0  0
    6.7668    5.2224   -6.7081 C   0  0  0  0  0  0  0  0  0  0  0  0
    6.4486    5.8053   -5.4808 C   0  0  0  0  0  0  0  0  0  0  0  0
    6.3790    7.5697   -5.4470 S   0  0  0  0  0  0  0  0  0  0  0  0
    6.8832    8.0465   -3.7537 C   0  0  0  0  0  0  0  0  0  0  0  0
    8.2786    7.5612   -3.4160 C   0  0  0  0  0  0  0  0  0  0  0  0
    6.1606    4.9439   -4.4267 C   0  0  0  0  0  0  0  0  0  0  0  0
    5.8170    5.4165   -3.2057 F   0  0  0  0  0  0  0  0  0  0  0  0
    6.2094    3.5720   -4.5719 C   0  0  0  0  0  0  0  0  0  0  0  0
    7.6327    0.8936   -6.5317 C   0  0  0  0  0  0  0  0  0  0  0  0
    7.7007   -0.5154   -6.6767 C   0  0  0  0  0  0  0  0  0  0  0  0
    6.6369   -1.3249   -6.2387 C   0  0  0  0  0  0  0  0  0  0  0  0
    6.7024   -2.7861   -6.3508 C   0  0  0  0  0  0  0  0  0  0  0  0
    7.8338   -3.4885   -5.9419 C   0  0  0  0  0  0  0  0  0  0  0  0
    7.9138   -4.8609   -6.0780 C   0  0  0  0  0  0  0  0  0  0  0  0
    6.8535   -5.5875   -6.6073 C   0  0  0  0  0  0  0  0  0  0  0  0
    6.8347   -7.3319   -6.8558 S   0  0  0  0  0  0  0  0  0  0  0  0
    8.2190   -7.9390   -5.8327 C   0  0  0  0  0  0  0  0  0  0  0  0
    7.9339   -7.8102   -4.3483 C   0  0  0  0  0  0  0  0  0  0  0  0
    5.7211   -4.8731   -7.0016 C   0  0  0  0  0  0  0  0  0  0  0  0
    5.6344   -3.5044   -6.8857 C   0  0  0  0  0  0  0  0  0  0  0  0
    4.6755   -5.5431   -7.5271 F   0  0  0  0  0  0  0  0  0  0  0  0
    5.5457   -0.6686   -5.6905 C   0  0  0  0  0  0  0  0  0  0  0  0
    4.1232   -1.4370   -5.0374 S   0  0  0  0  0  0  0  0  0  0  0  0
    8.9162   -0.9240   -7.2645 C   0  0  0  0  0  0  0  0  0  0  0  0
    9.7944    0.0975   -7.5175 C   0  0  0  0  0  0  0  0  0  0  0  0
    9.1061    1.6537   -7.0831 S   0  0  0  0  0  0  0  0  0  0  0  0
   11.1257   -0.0751   -7.9676 C   0  0  0  0  0  0  0  0  0  0  0  0
   11.7104   -1.7048   -8.1118 S   0  0  0  0  0  0  0  0  0  0  0  0
   13.3397   -1.1983   -8.4000 C   0  0  0  0  0  0  0  0  0  0  0  0
   13.4043    0.2010   -8.4799 C   0  0  0  0  0  0  0  0  0  0  0  0
   12.1534    0.8391   -8.2207 C   0  0  0  0  0  0  0  0  0  0  0  0
   12.0887    2.2476   -8.2335 C   0  0  0  0  0  0  0  0  0  0  0  0
   13.2012    2.9961   -8.4843 C   0  0  0  0  0  0  0  0  0  0  0  0
   13.1596    4.4896   -8.5110 C   0  0  0  0  0  0  0  0  0  0  0  0
   14.4524    2.3494   -8.7335 C   0  0  0  0  0  0  0  0  0  0  0  0
   15.4879    3.2009   -8.9693 O   0  0  0  0  0  0  0  0  0  0  0  0
   16.7572    2.6599   -9.2354 C   0  0  0  0  0  0  0  0  0  0  0  0
   14.5507    0.9826   -8.7254 C   0  0  0  0  0  0  0  0  0  0  0  0
   14.4097   -2.1158   -8.5644 C   0  0  0  0  0  0  0  0  0  0  0  0
   14.5015   -3.4075   -8.1542 C   0  0  0  0  0  0  0  0  0  0  0  0
   13.6499   -4.1528   -7.2861 C   0  0  0  0  0  0  0  0  0  0  0  0
   13.5244   -5.8634   -7.5481 S   0  0  0  0  0  0  0  0  0  0  0  0
   12.4404   -6.0986   -6.2170 C   0  0  0  0  0  0  0  0  0  0  0  0
   12.1736   -4.8809   -5.5890 C   0  0  0  0  0  0  0  0  0  0  0  0
   12.8951   -3.7895   -6.1677 C   0  0  0  0  0  0  0  0  0  0  0  0
   12.8062   -2.5160   -5.5629 C   0  0  0  0  0  0  0  0  0  0  0  0
   11.9299   -2.2829   -4.5452 C   0  0  0  0  0  0  0  0  0  0  0  0
   11.7676   -0.9272   -3.9377 C   0  0  0  0  0  0  0  0  0  0  0  0
   11.1188   -3.3538   -4.0529 C   0  0  0  0  0  0  0  0  0  0  0  0
   10.2448   -2.9891   -3.0725 O   0  0  0  0  0  0  0  0  0  0  0  0
    9.4287   -3.9744   -2.4917 C   0  0  0  0  0  0  0  0  0  0  0  0
   11.2644   -4.6259   -4.5370 C   0  0  0  0  0  0  0  0  0  0  0  0
   12.0102   -7.4394   -5.9405 C   0  0  0  0  0  0  0  0  0  0  0  0
   11.6022   -7.9249   -4.7671 C   0  0  0  0  0  0  0  0  0  0  0  0
  -14.2520   -2.6745   13.5948 H   0  0  0  0  0  0  0  0  0  0  0  0
  -13.5262   -0.3001   12.8184 H   0  0  0  0  0  0  0  0  0  0  0  0
  -10.2072    1.6713   10.5550 H   0  0  0  0  0  0  0  0  0  0  0  0
  -10.4320    3.9836   11.3546 H   0  0  0  0  0  0  0  0  0  0  0  0
  -13.7556    6.6327   13.8705 H   0  0  0  0  0  0  0  0  0  0  0  0
  -14.7704    5.3754   13.1414 H   0  0  0  0  0  0  0  0  0  0  0  0
  -14.0942    4.7555   15.4835 H   0  0  0  0  0  0  0  0  0  0  0  0
  -13.4133    3.6175   14.3185 H   0  0  0  0  0  0  0  0  0  0  0  0
  -12.3918    4.8775   15.0174 H   0  0  0  0  0  0  0  0  0  0  0  0
  -14.4351    1.1497   10.9981 H   0  0  0  0  0  0  0  0  0  0  0  0
  -12.9074   -3.7539    6.9278 H   0  0  0  0  0  0  0  0  0  0  0  0
  -12.5876   -5.9958    5.9465 H   0  0  0  0  0  0  0  0  0  0  0  0
   -9.0992   -8.3621    7.8737 H   0  0  0  0  0  0  0  0  0  0  0  0
   -9.2190   -9.3873    6.4311 H   0  0  0  0  0  0  0  0  0  0  0  0
   -9.0965   -6.3207    6.4049 H   0  0  0  0  0  0  0  0  0  0  0  0
   -7.7712   -7.3982    5.9562 H   0  0  0  0  0  0  0  0  0  0  0  0
   -9.2402   -7.3503    4.9776 H   0  0  0  0  0  0  0  0  0  0  0  0
  -10.8794   -5.0473   10.4713 H   0  0  0  0  0  0  0  0  0  0  0  0
  -10.4982   -2.7789    6.8468 H   0  0  0  0  0  0  0  0  0  0  0  0
   -9.1266    1.7013    5.7933 H   0  0  0  0  0  0  0  0  0  0  0  0
   -5.4289    3.4415    4.0178 H   0  0  0  0  0  0  0  0  0  0  0  0
   -5.7281    5.8025    4.4801 H   0  0  0  0  0  0  0  0  0  0  0  0
   -6.0412    8.0310    3.9229 H   0  0  0  0  0  0  0  0  0  0  0  0
   -6.0676    7.7386    5.6880 H   0  0  0  0  0  0  0  0  0  0  0  0
   -5.7951   10.1774    5.1928 H   0  0  0  0  0  0  0  0  0  0  0  0
   -7.3321    9.8642    6.0093 H   0  0  0  0  0  0  0  0  0  0  0  0
   -7.3032   10.1548    4.2695 H   0  0  0  0  0  0  0  0  0  0  0  0
   -9.6737    2.9488    3.7099 H   0  0  0  0  0  0  0  0  0  0  0  0
   -7.4053   -2.1971    0.3393 H   0  0  0  0  0  0  0  0  0  0  0  0
   -7.0496   -4.5215   -0.3949 H   0  0  0  0  0  0  0  0  0  0  0  0
   -5.2944   -7.9463    2.8151 H   0  0  0  0  0  0  0  0  0  0  0  0
   -4.3206   -6.6022    2.1583 H   0  0  0  0  0  0  0  0  0  0  0  0
   -4.7273   -9.2995    0.7713 H   0  0  0  0  0  0  0  0  0  0  0  0
   -3.2683   -8.8208    1.6491 H   0  0  0  0  0  0  0  0  0  0  0  0
   -3.7352   -7.9620    0.1765 H   0  0  0  0  0  0  0  0  0  0  0  0
   -6.5952   -3.3859    4.3736 H   0  0  0  0  0  0  0  0  0  0  0  0
   -5.0811   -1.3991    0.8359 H   0  0  0  0  0  0  0  0  0  0  0  0
   -3.5187   -1.2732   -0.7346 H   0  0  0  0  0  0  0  0  0  0  0  0
   -1.2289   -2.5111   -4.3487 H   0  0  0  0  0  0  0  0  0  0  0  0
   -1.8121   -4.8626   -4.4197 H   0  0  0  0  0  0  0  0  0  0  0  0
   -2.6188   -6.8308   -4.6061 H   0  0  0  0  0  0  0  0  0  0  0  0
   -2.6037   -8.4210   -3.8320 H   0  0  0  0  0  0  0  0  0  0  0  0
   -0.1567   -6.5774   -4.0011 H   0  0  0  0  0  0  0  0  0  0  0  0
   -0.2006   -8.1866   -3.2799 H   0  0  0  0  0  0  0  0  0  0  0  0
   -0.4320   -7.9932   -5.0213 H   0  0  0  0  0  0  0  0  0  0  0  0
   -1.6263   -2.5293   -0.0836 H   0  0  0  0  0  0  0  0  0  0  0  0
   -0.3081    3.5079    0.1602 H   0  0  0  0  0  0  0  0  0  0  0  0
    0.1732    5.8839    0.2451 H   0  0  0  0  0  0  0  0  0  0  0  0
    0.4390    9.5223   -0.3774 H   0  0  0  0  0  0  0  0  0  0  0  0
    0.5969    7.9686    0.4528 H   0  0  0  0  0  0  0  0  0  0  0  0
   -1.8444    8.9261   -1.1469 H   0  0  0  0  0  0  0  0  0  0  0  0
   -1.7579    8.8349    0.6163 H   0  0  0  0  0  0  0  0  0  0  0  0
   -1.7319    7.3554   -0.3512 H   0  0  0  0  0  0  0  0  0  0  0  0
    0.1004    3.5674   -4.1040 H   0  0  0  0  0  0  0  0  0  0  0  0
    2.0455    2.2681   -3.4074 H   0  0  0  0  0  0  0  0  0  0  0  0
    4.0009    2.1831   -4.7934 H   0  0  0  0  0  0  0  0  0  0  0  0
    7.0317    3.4389   -7.8401 H   0  0  0  0  0  0  0  0  0  0  0  0
    6.9811    5.8763   -7.5390 H   0  0  0  0  0  0  0  0  0  0  0  0
    6.8436    9.1356   -3.7846 H   0  0  0  0  0  0  0  0  0  0  0  0
    6.1400    7.6864   -3.0462 H   0  0  0  0  0  0  0  0  0  0  0  0
    8.9947    7.9147   -4.1550 H   0  0  0  0  0  0  0  0  0  0  0  0
    8.3172    6.4741   -3.3904 H   0  0  0  0  0  0  0  0  0  0  0  0
    8.5699    7.9373   -2.4374 H   0  0  0  0  0  0  0  0  0  0  0  0
    6.0084    2.9542   -3.7099 H   0  0  0  0  0  0  0  0  0  0  0  0
    8.6615   -2.9564   -5.4981 H   0  0  0  0  0  0  0  0  0  0  0  0
    8.8230   -5.3590   -5.7823 H   0  0  0  0  0  0  0  0  0  0  0  0
    8.3070   -8.9867   -6.1195 H   0  0  0  0  0  0  0  0  0  0  0  0
    9.1327   -7.4241   -6.1274 H   0  0  0  0  0  0  0  0  0  0  0  0
    7.7682   -6.7710   -4.0712 H   0  0  0  0  0  0  0  0  0  0  0  0
    7.0442   -8.3775   -4.0856 H   0  0  0  0  0  0  0  0  0  0  0  0
    8.7756   -8.1947   -3.7758 H   0  0  0  0  0  0  0  0  0  0  0  0
    4.7428   -3.0071   -7.2327 H   0  0  0  0  0  0  0  0  0  0  0  0
    9.1502   -1.9464   -7.4993 H   0  0  0  0  0  0  0  0  0  0  0  0
   11.1456    2.7378   -8.0502 H   0  0  0  0  0  0  0  0  0  0  0  0
   13.4857    4.8545   -9.4837 H   0  0  0  0  0  0  0  0  0  0  0  0
   12.1554    4.8513   -8.3091 H   0  0  0  0  0  0  0  0  0  0  0  0
   13.8447    4.8954   -7.7683 H   0  0  0  0  0  0  0  0  0  0  0  0
   17.4147    3.5133   -9.3938 H   0  0  0  0  0  0  0  0  0  0  0  0
   17.1282    2.0695   -8.3912 H   0  0  0  0  0  0  0  0  0  0  0  0
   16.7483    2.0383  -10.1368 H   0  0  0  0  0  0  0  0  0  0  0  0
   15.4889    0.4853   -8.9087 H   0  0  0  0  0  0  0  0  0  0  0  0
   15.2521   -1.7277   -9.1243 H   0  0  0  0  0  0  0  0  0  0  0  0
   15.3324   -3.9798   -8.5509 H   0  0  0  0  0  0  0  0  0  0  0  0
   13.4481   -1.7215   -5.9102 H   0  0  0  0  0  0  0  0  0  0  0  0
   12.4624   -0.2192   -4.3819 H   0  0  0  0  0  0  0  0  0  0  0  0
   10.7499   -0.5710   -4.0946 H   0  0  0  0  0  0  0  0  0  0  0  0
   11.9327   -0.9709   -2.8624 H   0  0  0  0  0  0  0  0  0  0  0  0
   10.0238   -4.7599   -2.0143 H   0  0  0  0  0  0  0  0  0  0  0  0
    8.7526   -4.4229   -3.2270 H   0  0  0  0  0  0  0  0  0  0  0  0
    8.8399   -3.4599   -1.7339 H   0  0  0  0  0  0  0  0  0  0  0  0
   10.6794   -5.4402   -4.1453 H   0  0  0  0  0  0  0  0  0  0  0  0
   12.0879   -8.1147   -6.7848 H   0  0  0  0  0  0  0  0  0  0  0  0
   11.3177   -8.9579   -4.6674 H   0  0  0  0  0  0  0  0  0  0  0  0
   11.5758   -7.3315   -3.8708 H   0  0  0  0  0  0  0  0  0  0  0  0
  1  2  2  0  0  0  0
  2  3  1  0  0  0  0
  3  4  2  0  0  0  0
  4  5  1  0  0  0  0
  5  6  2  0  0  0  0
  6  7  1  0  0  0  0
  7  8  2  0  0  0  0
  8  9  1  0  0  0  0
  9 10  1  0  0  0  0
 10 11  1  0  0  0  0
  8 12  1  0  0  0  0
 12 13  1  0  0  0  0
 12 14  2  0  0  0  0
  4 15  1  0  0  0  0
 15 16  2  0  0  0  0
 16 17  1  0  0  0  0
 17 18  1  0  0  0  0
 18 19  2  0  0  0  0
 19 20  1  0  0  0  0
 20 21  2  0  0  0  0
 21 22  1  0  0  0  0
 22 23  1  0  0  0  0
 23 24  1  0  0  0  0
 21 25  1  0  0  0  0
 25 26  2  0  0  0  0
 25 27  1  0  0  0  0
 17 28  2  0  0  0  0
 28 29  1  0  0  0  0
 16 30  1  0  0  0  0
 30 31  2  0  0  0  0
 31 32  1  0  0  0  0
 31 33  1  0  0  0  0
 33 34  2  0  0  0  0
 34 35  1  0  0  0  0
 35 36  2  0  0  0  0
 36 37  1  0  0  0  0
 37 38  2  0  0  0  0
 38 39  1  0  0  0  0
 39 40  2  0  0  0  0
 40 41  1  0  0  0  0
 41 42  1  0  0  0  0
 42 43  1  0  0  0  0
 40 44  1  0  0  0  0
 44 45  1  0  0  0  0
 44 46  2  0  0  0  0
 36 47  1  0  0  0  0
 47 48  2  0  0  0  0
 48 49  1  0  0  0  0
 49 50  1  0  0  0  0
 50 51  2  0  0  0  0
 51 52  1  0  0  0  0
 52 53  2  0  0  0  0
 53 54  1  0  0  0  0
 54 55  1  0  0  0  0
 55 56  1  0  0  0  0
 53 57  1  0  0  0  0
 57 58  2  0  0  0  0
 57 59  1  0  0  0  0
 49 60  2  0  0  0  0
 60 61  1  0  0  0  0
 48 62  1  0  0  0  0
 62 63  2  0  0  0  0
 63 64  1  0  0  0  0
 63 65  1  0  0  0  0
 65 66  2  0  0  0  0
 66 67  1  0  0  0  0
 67 68  2  0  0  0  0
 68 69  1  0  0  0  0
 69 70  2  0  0  0  0
 70 71  1  0  0  0  0
 71 72  2  0  0  0  0
 72 73  1  0  0  0  0
 73 74  1  0  0  0  0
 74 75  1  0  0  0  0
 72 76  1  0  0  0  0
 76 77  1  0  0  0  0
 76 78  2  0  0  0  0
 68 79  1  0  0  0  0
 79 80  2  0  0  0  0
 80 81  1  0  0  0  0
 81 82  1  0  0  0  0
 82 83  2  0  0  0  0
 83 84  1  0  0  0  0
 84 85  2  0  0  0  0
 85 86  1  0  0  0  0
 86 87  1  0  0  0  0
 87 88  1  0  0  0  0
 85 89  1  0  0  0  0
 89 90  2  0  0  0  0
 89 91  1  0  0  0  0
 81 92  2  0  0  0  0
 92 93  1  0  0  0  0
 80 94  1  0  0  0  0
 94 95  2  0  0  0  0
 95 96  1  0  0  0  0
 95 97  1  0  0  0  0
 97 98  2  0  0  0  0
 98 99  1  0  0  0  0
 99100  2  0  0  0  0
100101  1  0  0  0  0
101102  2  0  0  0  0
102103  1  0  0  0  0
103104  2  0  0  0  0
104105  1  0  0  0  0
105106  1  0  0  0  0
106107  1  0  0  0  0
104108  1  0  0  0  0
108109  1  0  0  0  0
108110  2  0  0  0  0
100111  1  0  0  0  0
111112  2  0  0  0  0
112113  1  0  0  0  0
113114  1  0  0  0  0
114115  2  0  0  0  0
115116  1  0  0  0  0
116117  2  0  0  0  0
117118  1  0  0  0  0
118119  1  0  0  0  0
119120  1  0  0  0  0
117121  1  0  0  0  0
121122  2  0  0  0  0
121123  1  0  0  0  0
113124  2  0  0  0  0
124125  1  0  0  0  0
112126  1  0  0  0  0
126127  2  0  0  0  0
127128  1  0  0  0  0
127129  1  0  0  0  0
129130  1  0  0  0  0
130131  1  0  0  0  0
131132  2  0  0  0  0
132133  1  0  0  0  0
133134  1  0  0  0  0
134135  2  0  0  0  0
135136  1  0  0  0  0
135137  1  0  0  0  0
137138  1  0  0  0  0
138139  1  0  0  0  0
137140  2  0  0  0  0
131141  1  0  0  0  0
141142  2  0  0  0  0
142143  1  0  0  0  0
143144  1  0  0  0  0
144145  1  0  0  0  0
145146  2  0  0  0  0
146147  1  0  0  0  0
147148  1  0  0  0  0
148149  2  0  0  0  0
149150  1  0  0  0  0
149151  1  0  0  0  0
151152  1  0  0  0  0
152153  1  0  0  0  0
151154  2  0  0  0  0
145155  1  0  0  0  0
155156  2  0  0  0  0
 29  1  1  0  0  0  0
 61 33  1  0  0  0  0
 93 65  1  0  0  0  0
125 97  1  0  0  0  0
133129  2  0  0  0  0
147143  2  0  0  0  0
 28  3  1  0  0  0  0
 60 35  1  0  0  0  0
 92 67  1  0  0  0  0
124 99  1  0  0  0  0
140132  1  0  0  0  0
154146  1  0  0  0  0
 14  5  1  0  0  0  0
 32 15  1  0  0  0  0
 46 37  1  0  0  0  0
 64 47  1  0  0  0  0
 78 69  1  0  0  0  0
 96 79  1  0  0  0  0
110101  1  0  0  0  0
128111  1  0  0  0  0
 26 18  1  0  0  0  0
 58 50  1  0  0  0  0
 90 82  1  0  0  0  0
122114  1  0  0  0  0
  1157  1  0  0  0  0
  2158  1  0  0  0  0
  6159  1  0  0  0  0
  7160  1  0  0  0  0
 10161  1  0  0  0  0
 10162  1  0  0  0  0
 11163  1  0  0  0  0
 11164  1  0  0  0  0
 11165  1  0  0  0  0
 14166  1  0  0  0  0
 19167  1  0  0  0  0
 20168  1  0  0  0  0
 23169  1  0  0  0  0
 23170  1  0  0  0  0
 24171  1  0  0  0  0
 24172  1  0  0  0  0
 24173  1  0  0  0  0
 26174  1  0  0  0  0
 30175  1  0  0  0  0
 34176  1  0  0  0  0
 38177  1  0  0  0  0
 39178  1  0  0  0  0
 42179  1  0  0  0  0
 42180  1  0  0  0  0
 43181  1  0  0  0  0
 43182  1  0  0  0  0
 43183  1  0  0  0  0
 46184  1  0  0  0  0
 51185  1  0  0  0  0
 52186  1  0  0  0  0
 55187  1  0  0  0  0
 55188  1  0  0  0  0
 56189  1  0  0  0  0
 56190  1  0  0  0  0
 56191  1  0  0  0  0
 58192  1  0  0  0  0
 62193  1  0  0  0  0
 66194  1  0  0  0  0
 70195  1  0  0  0  0
 71196  1  0  0  0  0
 74197  1  0  0  0  0
 74198  1  0  0  0  0
 75199  1  0  0  0  0
 75200  1  0  0  0  0
 75201  1  0  0  0  0
 78202  1  0  0  0  0
 83203  1  0  0  0  0
 84204  1  0  0  0  0
 87205  1  0  0  0  0
 87206  1  0  0  0  0
 88207  1  0  0  0  0
 88208  1  0  0  0  0
 88209  1  0  0  0  0
 90210  1  0  0  0  0
 94211  1  0  0  0  0
 98212  1  0  0  0  0
102213  1  0  0  0  0
103214  1  0  0  0  0
106215  1  0  0  0  0
106216  1  0  0  0  0
107217  1  0  0  0  0
107218  1  0  0  0  0
107219  1  0  0  0  0
110220  1  0  0  0  0
115221  1  0  0  0  0
116222  1  0  0  0  0
119223  1  0  0  0  0
119224  1  0  0  0  0
120225  1  0  0  0  0
120226  1  0  0  0  0
120227  1  0  0  0  0
122228  1  0  0  0  0
126229  1  0  0  0  0
134230  1  0  0  0  0
136231  1  0  0  0  0
136232  1  0  0  0  0
136233  1  0  0  0  0
139234  1  0  0  0  0
139235  1  0  0  0  0
139236  1  0  0  0  0
140237  1  0  0  0  0
141238  1  0  0  0  0
142239  1  0  0  0  0
148240  1  0  0  0  0
150241  1  0  0  0  0
150242  1  0  0  0  0
150243  1  0  0  0  0
153244  1  0  0  0  0
153245  1  0  0  0  0
153246  1  0  0  0  0
154247  1  0  0  0  0
155248  1  0  0  0  0
156249  1  0  0  0  0
156250  1  0  0  0  0
M  END
