236

C          3.61430       -4.49780        6.60840
C          3.11700       -3.24510        6.64980
C          2.27500       -2.94450        5.53960
C          1.56780       -1.75760        5.27750
C          1.77590       -0.56910        6.08590
S          3.39470       -0.00640        6.38690
C          2.83630        1.39410        7.23820
C          3.78720        2.38550        7.81740
C          4.96300        2.66440        6.88550
C          1.47410        1.40170        7.28640
Cl         0.54910        2.62070        8.06490
C          0.86910        0.29530        6.63230
Cl        -0.82750        0.06050        6.62460
C          0.73930       -1.75160        4.15970
C          0.63470       -2.86030        3.28330
C          1.33450       -4.04760        3.55130
C          1.17780       -5.21660        2.70730
S          2.54880       -6.07720        2.07610
C          1.54610       -7.21020        1.23680
C          2.12860       -8.31960        0.43540
C          2.44350       -9.52640        1.32030
C          0.22970       -6.94160        1.46580
C          0.01500       -5.81080        2.29700
Cl        -1.55280       -5.31320        2.78550
Cl        -1.06160       -7.85620        0.80430
C          2.15390       -4.05350        4.67190
S          3.10680       -5.40210        5.22500
C         -0.16650       -2.56700        2.15510
C         -0.68620       -1.30870        2.16270
S         -0.21980       -0.41330        3.59010
C         -1.52260       -0.73720        1.16130
C         -2.17220        0.46100        1.16050
C         -2.94660        0.68770       -0.00600
C         -3.79240        1.77820       -0.30290
C         -3.91450        2.90660        0.60380
S         -2.50590        3.66780        1.29530
C         -3.44150        4.85550        2.12910
C         -2.80770        5.86480        3.02060
C         -2.97190        5.47110        4.49030
C         -4.76760        4.65020        1.89640
Cl        -6.01070        5.60780        2.58460
C         -5.04170        3.55320        1.03750
Cl        -6.64900        3.05710        0.71520
C         -4.49330        1.71590       -1.50370
C         -4.39410        0.62420       -2.40420
C         -3.55470       -0.46350       -2.10660
C         -3.42500       -1.60520       -2.99450
S         -1.85450       -2.22350       -3.42460
C         -2.52570       -3.48870       -4.39340
C         -1.66440       -4.53270       -5.01390
C         -1.63440       -5.78410       -4.13290
C         -3.88640       -3.41960       -4.38320
C         -4.40010       -2.36210       -3.58630
Cl        -6.08800       -2.17260       -3.31950
Cl        -4.90330       -4.49710       -5.25120
C         -2.85090       -0.39620       -0.91150
S         -1.82120       -1.65650       -0.29810
C         -5.18030        0.80730       -3.56210
C         -5.87170        1.98520       -3.59280
S         -5.54530        2.94160       -2.15350
C         -6.70850        2.53010       -4.60360
S         -7.35740        4.11800       -4.34110
C         -7.94190        4.24970       -5.95870
C         -7.72820        3.06820       -6.65390
C         -7.03100        2.07680       -5.88830
C         -6.72870        0.85040       -6.51930
C         -7.03820        0.63380       -7.82920
C         -6.71580       -0.65510       -8.51290
C         -7.68830        1.65500       -8.59510
O         -7.91630        1.32460       -9.89400
C         -8.52750        2.27670      -10.72780
C         -8.04040        2.83990       -8.01340
C         -8.27780        5.56210       -6.50980
C         -7.33120        6.50200       -6.59400
C         -5.98080        6.15580       -6.15210
C         -5.36510        6.47780       -4.99030
C         -4.28470        5.60940       -4.66190
C         -3.60130        5.52260       -3.44000
C         -3.91780        6.38370       -2.31140
S         -5.56400        6.55750       -1.77090
C         -5.11120        7.57990       -0.45230
C         -6.13840        8.21480        0.41760
C         -6.64240        9.51890       -0.20530
C         -3.76030        7.75670       -0.43720
Cl        -2.93620        8.72000        0.71850
C         -3.07910        7.07450       -1.48060
Cl        -1.38510        7.21480       -1.70260
C         -2.69670        4.47490       -3.30570
C         -2.49760        3.48450       -4.29830
C         -3.18890        3.56440       -5.52320
C         -3.11630        2.49350       -6.49970
S         -3.17530        0.83220       -5.97740
C         -3.15730        0.22240       -7.59290
C         -3.10700       -1.24320       -7.84830
C         -1.70250       -1.78780       -7.57880
C         -3.10110        1.25470       -8.47950
C         -3.07490        2.53800       -7.86840
Cl        -2.87370        3.96240       -8.79760
Cl        -3.07320        1.05160      -10.18250
C         -4.04940        4.64860       -5.67760
S         -5.14180        4.87740       -7.00870
C         -1.61740        2.47050       -3.84940
C         -1.18160        2.65360       -2.57090
S         -1.80030        4.12130       -1.86210
C         -0.31210        1.80900       -1.82590
C          0.19750        2.01980       -0.58030
C          1.05560        0.98220       -0.14210
C          1.80680        0.91880        1.04630
C          1.93780        2.09780        1.88290
S          1.78660        2.06730        3.61420
C          2.06710        3.76800        3.75130
C          1.98090        4.46670        5.06210
C          0.55480        4.95620        5.32060
C          2.27410        4.31560        2.52030
Cl         2.57920        5.98320        2.25510
C          2.21670        3.37330        1.46170
Cl         2.57290        3.81400       -0.15880
C          2.47430       -0.27440        1.29530
C          2.48530       -1.36440        0.38580
C          1.81960       -1.25370       -0.85060
C          1.90650       -2.27140       -1.88570
S          2.39510       -1.82180       -3.49560
C          2.29850       -3.45080       -4.07340
C          2.63090       -3.79920       -5.48340
C          2.05180       -2.79270       -6.47350
C          1.90790       -4.28080       -3.06650
C          1.67390       -3.61600       -1.83310
Cl         1.05950       -4.45500       -0.47190
Cl         1.73790       -5.98130       -3.22680
C          1.12610       -0.07380       -1.08100
S          0.22200        0.29490       -2.52110
C          3.30970       -2.42080        0.84330
C          3.90930       -2.16860        2.04360
S          3.47960       -0.59620        2.67810
C          4.82900       -3.00450        2.74800
C          5.35050       -4.19500        2.33260
C          6.25450       -4.77060        3.25830
C          7.01090       -5.94480        3.11470
C          7.03070       -6.72090        1.88400
S          5.61010       -7.41820        1.17180
C          6.50970       -8.11930       -0.13220
C          5.86100       -8.97540       -1.16340
C          5.83120      -10.43790       -0.71380
C          7.83400       -7.82410       -0.00430
Cl         9.04070       -8.34380       -1.10710
C          8.13260       -7.02960        1.13390
Cl         9.71410       -6.45920        1.46760
C          7.81190       -6.31360        4.18900
C          7.94790       -5.52390        5.35350
C          7.27870       -4.29290        5.44830
C          7.54820       -3.40790        6.57020
S          6.29980       -2.77890        7.59890
C          7.44110       -1.95810        8.61140
C          6.98660       -1.16740        9.78780
C          6.20590        0.07250        9.35290
C          8.70860       -2.14750        8.14930
C          8.77370       -2.97400        6.99540
Cl        10.24930       -3.32740        6.19290
Cl        10.11090       -1.47990        8.87940
C          6.41130       -3.96510        4.41490
S          5.45380       -2.51570        4.30950
C          8.78500       -6.15430        6.31980
C          9.25670       -7.34730        5.90370
S          8.73000       -7.78650        4.31720
H          4.26580       -4.96990        7.31680
H          3.32400       -2.55310        7.44380
H          3.23980        3.30650        8.02910
H          4.16830        2.00490        8.76920
H          5.63440        3.38890        7.33840
H          5.51460        1.74790        6.69220
H          4.61530        3.05900        5.93420
H          3.04530       -7.97010       -0.04160
H          1.41230       -8.60540       -0.33720
H          2.82820      -10.34260        0.71500
H          1.54390       -9.86530        1.82760
H          3.18660       -9.25750        2.06710
H         -0.34740       -3.25430        1.35130
H         -2.10840        1.14500        1.98710
H         -1.74870        5.94540        2.77180
H         -3.27950        6.83500        2.85180
H         -2.48290        6.20060        5.12990
H         -4.02550        5.42870        4.75270
H         -2.53010        4.49490        4.67270
H         -0.65200       -4.14410       -5.13010
H         -2.06250       -4.79210       -5.99700
H         -1.25880       -5.53880       -3.14280
H         -0.98850       -6.53780       -4.57510
H         -2.63390       -6.19830       -4.03080
H         -5.21360        0.08080       -4.34500
H         -6.25940        0.05850       -5.96110
H         -5.98530       -0.48220       -9.30200
H         -7.60920       -1.06180       -8.98310
H         -6.31790       -1.38030       -7.80880
H         -9.53810        2.52160      -10.38480
H         -8.58340        1.81520      -11.71250
H         -7.93340        3.19420      -10.78960
H         -8.54340        3.62280       -8.55700
H         -9.28650        5.74250       -6.85490
H         -7.53530        7.49410       -6.96830
H         -5.72540        7.24850       -4.33450
H         -5.69680        8.42270        1.39370
H         -6.97630        7.52930        0.54980
H         -7.09160        9.32370       -1.17620
H         -7.38880        9.97530        0.43920
H         -5.82010       10.21790       -0.33580
H         -3.38420       -1.43010       -8.88650
H         -3.81760       -1.75470       -7.19630
H         -1.42970       -1.61640       -6.53970
H         -1.67250       -2.85500       -7.77990
H         -0.97600       -1.29180       -8.21770
H         -1.29890        1.63250       -4.44150
H         -0.05580        2.88090        0.01080
H          2.66490        5.31770        5.05630
H          2.27100        3.78010        5.85570
H          0.24860        5.65470        4.54700
H         -0.13120        4.11360        5.32560
H          0.50090        5.45440        6.28470
H          3.71860       -3.83030       -5.59900
H          2.24640       -4.80050       -5.68930
H          2.29480       -3.08660       -7.49090
H          2.46340       -1.80370       -6.28800
H          0.97050       -2.73670       -6.37640
H          3.46450       -3.32980        0.29400
H          5.10100       -4.65310        1.39450
H          4.84300       -8.62670       -1.34340
H          6.42680       -8.89230       -2.09330
H          5.33230      -11.04880       -1.46140
H          5.29970      -10.53150        0.22980
H          6.84360      -10.80960       -0.57910
H          7.86270       -0.87380       10.36790
H          6.34800       -1.79180       10.41700
H          5.34900       -0.22010        8.75000
H          6.84000        0.72780        8.76140
H          5.85930        0.61740       10.22720
H          8.99970       -5.73240        7.28440
H          9.89880       -8.02250        6.43500
