200

C          6.73710       -4.46030        6.11300
C          6.68850       -3.30370        5.42340
C          5.37000       -2.76940        5.32870
C          4.95080       -1.58040        4.70860
C          5.88720       -0.72090        4.00210
S          7.34830       -0.13520        4.74160
C          7.85370        0.67560        3.29880
C          9.16560        1.37450        3.21920
C         10.25490        0.42280        2.71910
C          6.93590        0.49050        2.30930
Cl         7.10690        1.09840        0.71370
C          5.81490       -0.28460        2.70800
Cl         4.56140       -0.69230        1.61560
C          3.59450       -1.28830        4.76220
C          2.63800       -2.14710        5.35770
C          3.05890       -3.32490        5.99600
C          2.13010       -4.19860        6.68990
S          2.16250       -5.92170        6.45460
C          0.91630       -6.18740        7.62730
C          0.44430       -7.56300        7.94750
C         -0.43960       -8.13520        6.83860
C          0.49450       -4.99930        8.14470
C          1.18370       -3.87150        7.62280
Cl         0.90860       -2.28240        8.21240
Cl        -0.73540       -4.85260        9.33300
C          4.42190       -3.60520        5.96070
S          5.19230       -4.98890        6.68600
C          1.31700       -1.66480        5.17380
C          1.25350       -0.46050        4.54130
S          2.84770        0.15250        4.13510
C          0.08320        0.24050        4.12070
S         -1.20290       -0.63370        3.35420
C         -2.14550        0.80380        3.10410
C         -1.48310        1.92130        3.63430
C         -0.20300        1.60200        4.17670
C          0.59500        2.63100        4.72300
C          0.15850        3.92170        4.71520
C          0.97760        5.03920        5.27520
C         -1.12160        4.23710        4.15630
O         -1.44140        5.55870        4.19920
C         -2.64510        5.97820        3.60740
C         -1.92670        3.25720        3.63630
C         -3.35380        0.79460        2.37820
C         -3.73740       -0.17750        1.50620
C         -4.88760       -0.07480        0.69010
S         -4.81750       -0.64760       -0.95110
C         -6.30150        0.15470       -1.38790
C         -6.89640        0.72950       -0.24830
C         -6.09250        0.60830        0.92080
C         -6.57520        1.12060        2.14210
C         -7.77430        1.77150        2.20070
C         -8.31610        2.32090        3.48160
C         -8.55180        1.93030        1.01350
O         -9.72110        2.60660        1.19130
C        -10.56890        2.78670        0.08540
C         -8.12550        1.40940       -0.18220
C         -6.67930        0.36600       -2.72370
C         -5.90570        0.03640       -3.79960
C         -6.04370        0.51700       -5.11450
S         -4.60920        0.47440       -6.09260
C         -5.25170        1.56630       -7.27390
C         -6.60080        1.83630       -6.98880
C         -7.05420        1.24260       -5.77330
C         -8.40110        1.40760       -5.40000
C         -9.25310        2.16800       -6.15040
C        -10.69050        2.34920       -5.77850
C         -8.77350        2.80950       -7.33130
O         -9.70530        3.55850       -7.98460
C         -9.32800        4.21980       -9.16570
C         -7.47710        2.63930       -7.74420
C         -4.49810        2.04860       -8.37840
C         -3.15270        2.12230       -8.51230
C         -2.16200        1.87950       -7.49950
C         -0.97070        1.23700       -7.65790
C         -0.24680        1.06250       -6.45090
C          0.96540        0.37710       -6.25640
C          1.76700       -0.05700       -7.38450
S          2.39720       -1.67370       -7.49860
C          3.15850       -1.35400       -9.01920
C          3.97920       -2.39280       -9.70020
C          5.38470       -2.45600       -9.09750
C          2.93950       -0.06300       -9.39740
Cl         3.55140        0.62800      -10.84470
C          2.14590        0.67320       -8.47850
Cl         1.78630        2.33650       -8.70040
C          1.33200        0.11760       -4.94100
C          0.57460        0.55950       -3.83020
C         -0.54060        1.39830       -4.02480
C         -1.24320        1.98860       -2.90090
S         -2.98140        2.00690       -2.81110
C         -2.97750        2.86730       -1.31080
C         -4.23930        3.27020       -0.62990
C         -5.32750        3.67280       -1.61920
C         -1.69720        3.10450       -0.90820
C         -0.71170        2.61490       -1.80470
Cl         0.96350        2.90550       -1.55740
Cl        -1.28600        3.92440        0.54300
C         -0.93800        1.60340       -5.33940
S         -2.36150        2.46020       -5.85140
C          1.05060        0.00510       -2.61640
C          2.16360       -0.76510       -2.77090
S          2.70160       -0.83090       -4.43500
C          2.79840       -1.57040       -1.77200
C          2.17670       -2.14920       -0.70730
C          3.02110       -3.00130        0.04550
C          2.68050       -3.79510        1.15530
C          1.29580       -3.96240        1.54940
S          0.81580       -3.90390        3.21680
C         -0.85790       -4.11360        2.83310
C         -1.89440       -4.13530        3.90090
C         -1.61270       -5.22580        4.93190
C         -1.01650       -4.25080        1.48650
Cl        -2.53560       -4.46810        0.71590
C          0.19890       -4.18030        0.75560
Cl         0.25020       -4.47390       -0.93690
C          3.73010       -4.42830        1.81240
C          5.07450       -4.34990        1.37690
C          5.40150       -3.60790        0.22920
C          6.77160       -3.46610       -0.23330
S          7.18920       -3.71590       -1.90300
C          8.84860       -3.30760       -1.63440
C          9.85010       -3.37170       -2.73400
C         10.43530       -4.78020       -2.86110
C          9.05390       -3.00380       -0.32200
C          7.88110       -3.08980        0.47340
Cl         7.88520       -2.68430        2.13760
Cl        10.57520       -2.54480        0.32800
C          4.35330       -2.97710       -0.43250
S          4.49000       -2.00080       -1.86790
C          5.93090       -5.15740        2.18260
C          5.27430       -5.79050        3.17500
S          3.57660       -5.46440        3.20230
H          7.59820       -5.06060        6.33230
H          7.55370       -2.83380        4.99490
H          9.43490        1.75440        4.20610
H          9.07440        2.21680        2.53040
H         11.20890        0.94040        2.66390
H         10.00220        0.05100        1.72980
H         10.35550       -0.42510        3.39260
H          1.31200       -8.21170        8.08430
H         -0.11520       -7.52850        8.88380
H          0.09940       -8.14020        5.89450
H         -0.72880       -9.15390        7.08260
H         -1.33810       -7.53540        6.72490
H          0.43920       -2.19040        5.50000
H          1.55850        2.38490        5.14260
H          1.91920        4.66770        5.66960
H          1.17840        5.77730        4.50030
H          0.42820        5.54440        6.06810
H         -3.51520        5.54550        4.11260
H         -2.66700        7.06120        3.71850
H         -2.67730        5.72170        2.54370
H         -2.89380        3.48650        3.22060
H         -3.95240        1.69170        2.45250
H         -3.06570       -1.00500        1.31450
H         -6.00120        0.96860        3.04320
H         -8.46950        3.39550        3.39280
H         -7.63710        2.12200        4.30630
H         -9.28490        1.87440        3.69950
H        -10.08010        3.36180       -0.70810
H        -10.91090        1.82830       -0.31920
H        -11.42610        3.34520        0.45830
H         -8.72320        1.49610       -1.07440
H         -7.57130        0.95540       -2.86860
H         -4.99340       -0.51540       -3.60670
H         -8.78030        0.89610       -4.52950
H        -10.90290        3.40400       -5.60950
H        -10.93360        1.78650       -4.88100
H        -11.33230        2.01790       -6.59320
H         -9.01700        3.51200       -9.94120
H         -8.52090        4.93720       -8.98460
H        -10.21560        4.75360       -9.50190
H         -7.11180        3.10040       -8.64690
H         -5.09270        2.37220       -9.22440
H         -2.75350        2.38560       -9.48390
H         -0.66130        0.81280       -8.59610
H          4.04450       -2.14860      -10.76190
H          3.49540       -3.36520       -9.59260
H          5.88650       -1.49840       -9.21130
H          5.32890       -2.69540       -8.03830
H          5.97260       -3.21970       -9.59940
H         -4.01120        4.10190        0.04090
H         -4.60100        2.44110       -0.01600
H         -5.00760        4.52660       -2.21140
H         -6.23660        3.93580       -1.08440
H         -5.54810        2.84890       -2.29400
H          0.57060        0.15310       -1.66700
H          1.14460       -1.97180       -0.47100
H         -1.91740       -3.16310        4.40040
H         -2.86690       -4.29830        3.43390
H         -2.36320       -5.20090        5.71760
H         -0.63320       -5.07550        5.37950
H         -1.63000       -6.20470        4.45950
H          9.37250       -3.08970       -3.67360
H         10.65160       -2.66160       -2.52070
H          9.64670       -5.49780       -3.07420
H         11.16320       -4.81070       -3.66720
H         10.92780       -5.06880       -1.93590
H          6.98370       -5.27040        2.00330
H          5.67740       -6.45390        3.91470
