98

C         -0.80820        2.78270        4.97620
S         -1.55890        2.04990        3.63140
C         -0.06390        1.93990        2.74510
C          0.97570        2.50480        3.48980
C          0.53880        2.97690        4.77130
C          1.46920        3.58820        5.64680
C          2.76280        3.76560        5.26730
C          3.77330        4.41940        6.15430
C          3.18060        3.34500        3.96130
O          4.48690        3.62040        3.67880
C          4.98730        3.27650        2.41260
C          2.31350        2.73090        3.09900
C         -0.07070        1.33780        1.46030
C          0.99010        0.71900        0.87900
C          1.01490        0.19110       -0.42870
S         -0.31140        0.39220       -1.53710
C          0.48910       -0.45840       -2.82910
C          1.76290       -0.86670       -2.40200
C          2.05270       -0.51250       -1.05290
C          3.29200       -0.89200       -0.49330
C          4.20970       -1.58800       -1.22700
C          5.52570       -2.01090       -0.65720
C          3.91180       -1.93690       -2.58100
O          4.90130       -2.63520       -3.20970
C          4.70430       -3.02180       -4.54530
C          2.71850       -1.58440       -3.15210
C          0.01640       -0.53210       -4.16530
C         -1.20790       -0.38110       -4.72710
N         -2.43900       -0.32980       -4.14740
C         -3.59890        0.01210       -4.81030
C         -3.94180        0.61610       -5.97430
S         -5.66800        0.76690       -6.07650
C         -5.90930        0.01060       -4.53240
C         -4.71880       -0.33500       -3.99690
N         -4.27760       -0.99460       -2.85120
C         -2.80740       -0.94780       -2.88940
N         -4.89790       -0.65490       -1.64820
C         -4.53580        0.53550       -1.00510
C         -4.31250        1.81780       -1.37200
S         -3.88880        2.76550        0.01940
C         -4.00750        1.40150        1.08530
C         -4.35740        0.29710        0.38790
N         -4.58410       -1.04830        0.67270
C         -4.88880       -1.69580       -0.61810
N         -3.68330       -1.66400        1.53440
C         -3.99350       -2.94250        1.98790
C         -5.10680       -3.60820        2.36880
S         -4.69570       -5.22790        2.84100
C         -3.01000       -4.98640        2.50210
C         -2.80460       -3.72500        2.06350
N         -1.71110       -2.95220        1.67440
C         -2.25540       -1.67850        1.17910
N         -0.70140       -3.56880        0.95690
C         -0.79700       -3.81380       -0.40890
C         -1.76390       -4.11640       -1.30100
S         -1.06360       -4.34070       -2.88340
C          0.54170       -4.00790       -2.29800
C          0.51570       -3.75230       -0.97240
N          1.42380       -3.50740        0.03970
C          0.66800       -3.11710        1.21800
H         -1.38970        3.03470        5.84000
H          1.12920        3.92440        6.61510
H          4.17190        5.31040        5.67150
H          3.32980        4.69620        7.10680
H          4.60990        3.74500        6.32970
H          6.02830        3.59620        2.40920
H          4.94150        2.19570        2.24080
H          4.44780        3.79200        1.61120
H          2.61970        2.45290        2.10510
H         -1.01520        1.35860        0.92810
H          1.90100        0.59420        1.44660
H          3.51690       -0.62850        0.53030
H          5.62470       -3.09430       -0.70960
H          6.33930       -1.58460       -1.24170
H          5.62260       -1.69170        0.37730
H          3.84550       -3.69370       -4.64890
H          4.56630       -2.15470       -5.19980
H          5.61000       -3.55150       -4.83610
H          2.48630       -1.84900       -4.17040
H          0.81210       -0.68770       -4.88270
H         -1.25780       -0.30540       -5.80600
H         -3.33000        0.99100       -6.76760
H         -6.89770       -0.11040       -4.14330
H         -2.43400       -0.36540       -2.03230
H         -2.38740       -1.96260       -2.84030
H         -4.35110        2.27480       -2.33910
H         -3.79870        1.51530        2.12760
H         -4.16520       -2.48640       -0.85830
H         -5.88760       -2.14590       -0.55560
H         -6.12440       -3.28150        2.40190
H         -2.31570       -5.78860        2.63550
H         -1.75360       -0.84360        1.68420
H         -2.09950       -1.57690        0.08960
H         -2.81510       -4.26900       -1.16430
H          1.36430       -4.02940       -2.97990
H          2.25880       -2.97790       -0.16750
H          1.05790       -3.62900        2.10690
H          0.69380       -2.02590        1.40100
