
  xtb     03042208323D
 energy: -398.615157819943 gnorm: 0.000435258072 xtb: 6.4.1 (unknown)
220241  0     0  0            999 V2000
    4.3994    1.4382   11.4417 C   0  0  0  0  0  0  0  0  0  0  0  0
    4.7025    0.9729   10.2134 C   0  0  0  0  0  0  0  0  0  0  0  0
    3.7003    1.2738    9.2433 C   0  0  0  0  0  0  0  0  0  0  0  0
    3.6991    0.9725    7.8741 C   0  0  0  0  0  0  0  0  0  0  0  0
    4.7676    0.1792    7.2542 C   0  0  0  0  0  0  0  0  0  0  0  0
    5.4194    0.6263    6.1096 C   0  0  0  0  0  0  0  0  0  0  0  0
    6.4184   -0.1206    5.5147 C   0  0  0  0  0  0  0  0  0  0  0  0
    6.7960   -1.3502    6.0425 C   0  0  0  0  0  0  0  0  0  0  0  0
    8.0418   -2.4050    5.3890 S   0  0  0  0  0  0  0  0  0  0  0  0
    8.6581   -1.4862    3.9290 C   0  0  0  0  0  0  0  0  0  0  0  0
    9.7558   -2.3015    3.2716 C   0  0  0  0  0  0  0  0  0  0  0  0
    6.1293   -1.7885    7.1896 C   0  0  0  0  0  0  0  0  0  0  0  0
    6.4661   -2.9805    7.7240 F   0  0  0  0  0  0  0  0  0  0  0  0
    5.1385   -1.0511    7.7951 C   0  0  0  0  0  0  0  0  0  0  0  0
    2.6294    1.4535    7.1333 C   0  0  0  0  0  0  0  0  0  0  0  0
    1.5645    2.2015    7.6942 C   0  0  0  0  0  0  0  0  0  0  0  0
    1.5516    2.4765    9.0708 C   0  0  0  0  0  0  0  0  0  0  0  0
    0.4534    3.2140    9.7066 C   0  0  0  0  0  0  0  0  0  0  0  0
    0.0187    4.4417    9.2174 C   0  0  0  0  0  0  0  0  0  0  0  0
   -1.0111    5.1335    9.8282 C   0  0  0  0  0  0  0  0  0  0  0  0
   -1.6483    4.6144   10.9499 C   0  0  0  0  0  0  0  0  0  0  0  0
   -2.9676    5.3754   11.8288 S   0  0  0  0  0  0  0  0  0  0  0  0
   -3.3783    6.8289   10.7932 C   0  0  0  0  0  0  0  0  0  0  0  0
   -4.6059    7.5071   11.3726 C   0  0  0  0  0  0  0  0  0  0  0  0
   -1.1979    3.3832   11.4326 C   0  0  0  0  0  0  0  0  0  0  0  0
   -0.1714    2.6890   10.8373 C   0  0  0  0  0  0  0  0  0  0  0  0
   -1.7964    2.8525   12.5166 F   0  0  0  0  0  0  0  0  0  0  0  0
    2.6272    2.0021    9.8104 C   0  0  0  0  0  0  0  0  0  0  0  0
    2.8838    2.2692   11.5160 S   0  0  0  0  0  0  0  0  0  0  0  0
    0.5856    2.5361    6.7203 C   0  0  0  0  0  0  0  0  0  0  0  0
    0.8758    2.0681    5.4747 C   0  0  0  0  0  0  0  0  0  0  0  0
    2.3812    1.1741    5.4313 S   0  0  0  0  0  0  0  0  0  0  0  0
    0.1304    2.2476    4.2652 C   0  0  0  0  0  0  0  0  0  0  0  0
   -0.7420    3.2471    3.9561 C   0  0  0  0  0  0  0  0  0  0  0  0
   -1.2690    3.1486    2.6415 C   0  0  0  0  0  0  0  0  0  0  0  0
   -2.1022    4.0604    1.9766 C   0  0  0  0  0  0  0  0  0  0  0  0
   -2.6416    5.2494    2.6472 C   0  0  0  0  0  0  0  0  0  0  0  0
   -3.3261    5.1472    3.8548 C   0  0  0  0  0  0  0  0  0  0  0  0
   -3.8538    6.2638    4.4751 C   0  0  0  0  0  0  0  0  0  0  0  0
   -3.7045    7.5279    3.9150 C   0  0  0  0  0  0  0  0  0  0  0  0
   -4.3460    9.0322    4.5671 S   0  0  0  0  0  0  0  0  0  0  0  0
   -4.8080    8.6228    6.2847 C   0  0  0  0  0  0  0  0  0  0  0  0
   -3.5944    8.4126    7.1702 C   0  0  0  0  0  0  0  0  0  0  0  0
   -3.0118    7.6147    2.7054 C   0  0  0  0  0  0  0  0  0  0  0  0
   -2.8429    8.8236    2.1354 F   0  0  0  0  0  0  0  0  0  0  0  0
   -2.4886    6.5105    2.0736 C   0  0  0  0  0  0  0  0  0  0  0  0
   -2.3613    3.7965    0.6398 C   0  0  0  0  0  0  0  0  0  0  0  0
   -1.8797    2.6576   -0.0522 C   0  0  0  0  0  0  0  0  0  0  0  0
   -1.0936    1.7136    0.6300 C   0  0  0  0  0  0  0  0  0  0  0  0
   -0.6054    0.4633    0.0345 C   0  0  0  0  0  0  0  0  0  0  0  0
   -0.6929   -0.7151    0.7748 C   0  0  0  0  0  0  0  0  0  0  0  0
   -0.1863   -1.9078    0.3018 C   0  0  0  0  0  0  0  0  0  0  0  0
    0.4177   -1.9762   -0.9465 C   0  0  0  0  0  0  0  0  0  0  0  0
    1.1605   -3.4146   -1.6328 S   0  0  0  0  0  0  0  0  0  0  0  0
    0.5549   -4.7858   -0.5849 C   0  0  0  0  0  0  0  0  0  0  0  0
    1.4429   -5.0425    0.6182 C   0  0  0  0  0  0  0  0  0  0  0  0
    0.4669   -0.7997   -1.6963 C   0  0  0  0  0  0  0  0  0  0  0  0
   -0.0188    0.4015   -1.2283 C   0  0  0  0  0  0  0  0  0  0  0  0
    1.0234   -0.8308   -2.9258 F   0  0  0  0  0  0  0  0  0  0  0  0
   -0.7848    2.0092    1.9553 C   0  0  0  0  0  0  0  0  0  0  0  0
    0.3219    1.1055    2.9550 S   0  0  0  0  0  0  0  0  0  0  0  0
   -2.2877    2.6689   -1.4205 C   0  0  0  0  0  0  0  0  0  0  0  0
   -3.0271    3.7521   -1.7532 C   0  0  0  0  0  0  0  0  0  0  0  0
   -3.3289    4.8129   -0.3941 S   0  0  0  0  0  0  0  0  0  0  0  0
   -3.5502    4.1908   -3.0389 C   0  0  0  0  0  0  0  0  0  0  0  0
   -2.8690    4.7893   -4.0689 C   0  0  0  0  0  0  0  0  0  0  0  0
   -3.6941    5.1705   -5.0407 O   0  0  0  0  0  0  0  0  0  0  0  0
   -4.9404    4.8407   -4.6530 C   0  0  0  0  0  0  0  0  0  0  0  0
   -6.0220    5.1260   -5.5202 N   0  0  0  0  0  4  0  0  0  0  0  0
   -5.7671    5.5944   -6.6051 O   0  0  0  0  0  1  0  0  0  0  0  0
   -7.1343    4.8704   -5.0971 O   0  0  0  0  0  0  0  0  0  0  0  0
   -4.9251    4.2253   -3.4174 C   0  0  0  0  0  0  0  0  0  0  0  0
   -6.0140    3.6907   -2.6230 C   0  0  0  0  0  0  0  0  0  0  0  0
   -7.0913    4.3658   -2.1146 C   0  0  0  0  0  0  0  0  0  0  0  0
   -7.8078    3.5918   -1.3140 O   0  0  0  0  0  0  0  0  0  0  0  0
   -7.2118    2.3802   -1.2801 C   0  0  0  0  0  0  0  0  0  0  0  0
   -7.8194    1.4036   -0.4720 N   0  0  0  0  0  4  0  0  0  0  0  0
   -7.2281    0.3446   -0.3287 O   0  0  0  0  0  1  0  0  0  0  0  0
   -8.8869    1.6760    0.0343 O   0  0  0  0  0  0  0  0  0  0  0  0
   -6.0828    2.3597   -2.0925 C   0  0  0  0  0  0  0  0  0  0  0  0
   -5.1959    1.2948   -2.4567 C   0  0  0  0  0  0  0  0  0  0  0  0
   -4.4675    1.2519   -3.6153 C   0  0  0  0  0  0  0  0  0  0  0  0
   -3.6269    0.1228   -3.7154 C   0  0  0  0  0  0  0  0  0  0  0  0
   -2.7703   -0.2144   -4.7769 C   0  0  0  0  0  0  0  0  0  0  0  0
   -2.5283    0.6600   -5.9294 C   0  0  0  0  0  0  0  0  0  0  0  0
   -2.1307    1.9843   -5.7551 C   0  0  0  0  0  0  0  0  0  0  0  0
   -1.7542    2.7515   -6.8364 C   0  0  0  0  0  0  0  0  0  0  0  0
   -1.7694    2.2375   -8.1321 C   0  0  0  0  0  0  0  0  0  0  0  0
   -1.2039    3.2845   -9.4347 S   0  0  0  0  0  0  0  0  0  0  0  0
   -0.2567    2.1532  -10.5239 C   0  0  0  0  0  0  0  0  0  0  0  0
    0.8396    1.4187   -9.7798 C   0  0  0  0  0  0  0  0  0  0  0  0
   -2.2430    0.9381   -8.2972 C   0  0  0  0  0  0  0  0  0  0  0  0
   -2.3639    0.3973   -9.5273 F   0  0  0  0  0  0  0  0  0  0  0  0
   -2.5984    0.1508   -7.2222 C   0  0  0  0  0  0  0  0  0  0  0  0
   -2.0867   -1.4109   -4.6600 C   0  0  0  0  0  0  0  0  0  0  0  0
   -2.2201   -2.2846   -3.5495 C   0  0  0  0  0  0  0  0  0  0  0  0
   -3.0781   -1.9439   -2.4874 C   0  0  0  0  0  0  0  0  0  0  0  0
   -3.2423   -2.8315   -1.3337 C   0  0  0  0  0  0  0  0  0  0  0  0
   -3.3728   -4.2123   -1.4920 C   0  0  0  0  0  0  0  0  0  0  0  0
   -3.4759   -5.0410   -0.3954 C   0  0  0  0  0  0  0  0  0  0  0  0
   -3.4486   -4.5339    0.9022 C   0  0  0  0  0  0  0  0  0  0  0  0
   -3.4951   -5.6871    2.2445 S   0  0  0  0  0  0  0  0  0  0  0  0
   -4.6942   -4.9343    3.4052 C   0  0  0  0  0  0  0  0  0  0  0  0
   -6.0412   -4.6997    2.7528 C   0  0  0  0  0  0  0  0  0  0  0  0
   -3.3347   -3.1551    1.0458 C   0  0  0  0  0  0  0  0  0  0  0  0
   -3.2545   -2.3124   -0.0429 C   0  0  0  0  0  0  0  0  0  0  0  0
   -3.2656   -2.5923    2.2723 F   0  0  0  0  0  0  0  0  0  0  0  0
   -3.7453   -0.7268   -2.5859 C   0  0  0  0  0  0  0  0  0  0  0  0
   -4.8945   -0.0926   -1.4388 S   0  0  0  0  0  0  0  0  0  0  0  0
   -1.3527   -3.3992   -3.6688 C   0  0  0  0  0  0  0  0  0  0  0  0
   -0.5859   -3.3800   -4.7961 C   0  0  0  0  0  0  0  0  0  0  0  0
   -0.9109   -1.9911   -5.8043 S   0  0  0  0  0  0  0  0  0  0  0  0
    0.4358   -4.2916   -5.1853 C   0  0  0  0  0  0  0  0  0  0  0  0
    1.2242   -4.2048   -6.2931 C   0  0  0  0  0  0  0  0  0  0  0  0
    2.2213   -5.2089   -6.3622 C   0  0  0  0  0  0  0  0  0  0  0  0
    3.1815   -5.4057   -7.3681 C   0  0  0  0  0  0  0  0  0  0  0  0
    3.2802   -4.4707   -8.4948 C   0  0  0  0  0  0  0  0  0  0  0  0
    3.3051   -4.9179   -9.8116 C   0  0  0  0  0  0  0  0  0  0  0  0
    3.3419   -4.0287  -10.8695 C   0  0  0  0  0  0  0  0  0  0  0  0
    3.3556   -2.6569  -10.6467 C   0  0  0  0  0  0  0  0  0  0  0  0
    3.3862   -1.4057  -11.8868 S   0  0  0  0  0  0  0  0  0  0  0  0
    3.0700   -2.2999  -13.4460 C   0  0  0  0  0  0  0  0  0  0  0  0
    1.6256   -2.7460  -13.5733 C   0  0  0  0  0  0  0  0  0  0  0  0
    3.3658   -2.2233   -9.3193 C   0  0  0  0  0  0  0  0  0  0  0  0
    3.4068   -0.8985   -9.0668 F   0  0  0  0  0  0  0  0  0  0  0  0
    3.3290   -3.0966   -8.2577 C   0  0  0  0  0  0  0  0  0  0  0  0
    4.0139   -6.5060   -7.2209 C   0  0  0  0  0  0  0  0  0  0  0  0
    3.9532   -7.3829   -6.1091 C   0  0  0  0  0  0  0  0  0  0  0  0
    3.0018   -7.1778   -5.0992 C   0  0  0  0  0  0  0  0  0  0  0  0
    2.8913   -8.0506   -3.9240 C   0  0  0  0  0  0  0  0  0  0  0  0
    2.8444   -7.5059   -2.6440 C   0  0  0  0  0  0  0  0  0  0  0  0
    2.7000   -8.3074   -1.5281 C   0  0  0  0  0  0  0  0  0  0  0  0
    2.6004   -9.6883   -1.6520 C   0  0  0  0  0  0  0  0  0  0  0  0
    2.3851  -10.8315   -0.3306 S   0  0  0  0  0  0  0  0  0  0  0  0
    2.4846   -9.8101    1.1796 C   0  0  0  0  0  0  0  0  0  0  0  0
    3.9085   -9.4128    1.5217 C   0  0  0  0  0  0  0  0  0  0  0  0
    2.6534  -10.2206   -2.9426 C   0  0  0  0  0  0  0  0  0  0  0  0
    2.7947   -9.4337   -4.0628 C   0  0  0  0  0  0  0  0  0  0  0  0
    2.5540  -11.5561   -3.1019 F   0  0  0  0  0  0  0  0  0  0  0  0
    2.1534   -6.0923   -5.2583 C   0  0  0  0  0  0  0  0  0  0  0  0
    0.8579   -5.6563   -4.1756 S   0  0  0  0  0  0  0  0  0  0  0  0
    4.9737   -8.3783   -6.1708 C   0  0  0  0  0  0  0  0  0  0  0  0
    5.7484   -8.2701   -7.2686 C   0  0  0  0  0  0  0  0  0  0  0  0
    5.3052   -6.9568   -8.3049 S   0  0  0  0  0  0  0  0  0  0  0  0
    4.9772    1.3493   12.3409 H   0  0  0  0  0  0  0  0  0  0  0  0
    5.6111    0.4481    9.9808 H   0  0  0  0  0  0  0  0  0  0  0  0
    5.1576    1.5834    5.6853 H   0  0  0  0  0  0  0  0  0  0  0  0
    6.9015    0.2666    4.6330 H   0  0  0  0  0  0  0  0  0  0  0  0
    7.8213   -1.3378    3.2463 H   0  0  0  0  0  0  0  0  0  0  0  0
    9.0408   -0.5252    4.2731 H   0  0  0  0  0  0  0  0  0  0  0  0
   10.5749   -2.4680    3.9672 H   0  0  0  0  0  0  0  0  0  0  0  0
   10.1382   -1.7725    2.4012 H   0  0  0  0  0  0  0  0  0  0  0  0
    9.3732   -3.2683    2.9529 H   0  0  0  0  0  0  0  0  0  0  0  0
    4.6442   -1.4480    8.6680 H   0  0  0  0  0  0  0  0  0  0  0  0
    0.5122    4.8789    8.3622 H   0  0  0  0  0  0  0  0  0  0  0  0
   -1.3073    6.0887    9.4259 H   0  0  0  0  0  0  0  0  0  0  0  0
   -3.5704    6.4669    9.7830 H   0  0  0  0  0  0  0  0  0  0  0  0
   -2.5223    7.5042   10.7968 H   0  0  0  0  0  0  0  0  0  0  0  0
   -5.4504    6.8221   11.3809 H   0  0  0  0  0  0  0  0  0  0  0  0
   -4.8680    8.3793   10.7767 H   0  0  0  0  0  0  0  0  0  0  0  0
   -4.4152    7.8291   12.3933 H   0  0  0  0  0  0  0  0  0  0  0  0
    0.1215    1.7350   11.2454 H   0  0  0  0  0  0  0  0  0  0  0  0
   -0.3165    3.0734    6.9491 H   0  0  0  0  0  0  0  0  0  0  0  0
   -0.9665    4.0599    4.6220 H   0  0  0  0  0  0  0  0  0  0  0  0
   -3.4734    4.1752    4.3013 H   0  0  0  0  0  0  0  0  0  0  0  0
   -4.3978    6.1368    5.3971 H   0  0  0  0  0  0  0  0  0  0  0  0
   -5.4745    7.7614    6.2763 H   0  0  0  0  0  0  0  0  0  0  0  0
   -5.3748    9.4956    6.6085 H   0  0  0  0  0  0  0  0  0  0  0  0
   -3.0129    7.5541    6.8396 H   0  0  0  0  0  0  0  0  0  0  0  0
   -2.9542    9.2912    7.1416 H   0  0  0  0  0  0  0  0  0  0  0  0
   -3.9124    8.2482    8.1979 H   0  0  0  0  0  0  0  0  0  0  0  0
   -1.9454    6.6453    1.1519 H   0  0  0  0  0  0  0  0  0  0  0  0
   -1.1774   -0.7084    1.7386 H   0  0  0  0  0  0  0  0  0  0  0  0
   -0.2649   -2.7846    0.9222 H   0  0  0  0  0  0  0  0  0  0  0  0
    0.5595   -5.6473   -1.2542 H   0  0  0  0  0  0  0  0  0  0  0  0
   -0.4746   -4.5665   -0.3035 H   0  0  0  0  0  0  0  0  0  0  0  0
    1.0405   -5.8709    1.1987 H   0  0  0  0  0  0  0  0  0  0  0  0
    1.5037   -4.1682    1.2620 H   0  0  0  0  0  0  0  0  0  0  0  0
    2.4506   -5.2935    0.2948 H   0  0  0  0  0  0  0  0  0  0  0  0
    0.1050    1.2831   -1.8368 H   0  0  0  0  0  0  0  0  0  0  0  0
   -2.0404    1.8912   -2.1195 H   0  0  0  0  0  0  0  0  0  0  0  0
   -1.8236    4.9971   -4.1913 H   0  0  0  0  0  0  0  0  0  0  0  0
   -7.4141    5.3781   -2.2580 H   0  0  0  0  0  0  0  0  0  0  0  0
   -4.5662    1.9676   -4.4096 H   0  0  0  0  0  0  0  0  0  0  0  0
   -2.0656    2.3910   -4.7568 H   0  0  0  0  0  0  0  0  0  0  0  0
   -1.4146    3.7664   -6.6999 H   0  0  0  0  0  0  0  0  0  0  0  0
   -0.9499    1.4715  -11.0118 H   0  0  0  0  0  0  0  0  0  0  0  0
    0.1605    2.8292  -11.2703 H   0  0  0  0  0  0  0  0  0  0  0  0
    1.4380    0.8413  -10.4811 H   0  0  0  0  0  0  0  0  0  0  0  0
    1.4942    2.1200   -9.2675 H   0  0  0  0  0  0  0  0  0  0  0  0
    0.4253    0.7344   -9.0420 H   0  0  0  0  0  0  0  0  0  0  0  0
   -2.9464   -0.8533   -7.4074 H   0  0  0  0  0  0  0  0  0  0  0  0
   -3.4309   -4.6353   -2.4826 H   0  0  0  0  0  0  0  0  0  0  0  0
   -3.5790   -6.1071   -0.5249 H   0  0  0  0  0  0  0  0  0  0  0  0
   -4.7646   -5.6726    4.2041 H   0  0  0  0  0  0  0  0  0  0  0  0
   -4.2686   -4.0168    3.8057 H   0  0  0  0  0  0  0  0  0  0  0  0
   -6.4279   -5.6244    2.3292 H   0  0  0  0  0  0  0  0  0  0  0  0
   -5.9671   -3.9589    1.9585 H   0  0  0  0  0  0  0  0  0  0  0  0
   -6.7470   -4.3342    3.4958 H   0  0  0  0  0  0  0  0  0  0  0  0
   -3.1585   -1.2540    0.1328 H   0  0  0  0  0  0  0  0  0  0  0  0
   -1.2647   -4.1786   -2.9353 H   0  0  0  0  0  0  0  0  0  0  0  0
    1.0860   -3.4439   -7.0399 H   0  0  0  0  0  0  0  0  0  0  0  0
    3.2710   -5.9767  -10.0171 H   0  0  0  0  0  0  0  0  0  0  0  0
    3.3575   -4.4203  -11.8733 H   0  0  0  0  0  0  0  0  0  0  0  0
    3.3177   -1.5673  -14.2143 H   0  0  0  0  0  0  0  0  0  0  0  0
    3.7731   -3.1285  -13.5192 H   0  0  0  0  0  0  0  0  0  0  0  0
    1.4764   -3.2473  -14.5277 H   0  0  0  0  0  0  0  0  0  0  0  0
    0.9619   -1.8859  -13.5250 H   0  0  0  0  0  0  0  0  0  0  0  0
    1.3544   -3.4318  -12.7736 H   0  0  0  0  0  0  0  0  0  0  0  0
    3.3556   -2.7039   -7.2533 H   0  0  0  0  0  0  0  0  0  0  0  0
    2.9398   -6.4382   -2.5161 H   0  0  0  0  0  0  0  0  0  0  0  0
    2.6613   -7.8414   -0.5576 H   0  0  0  0  0  0  0  0  0  0  0  0
    1.8254   -8.9514    1.0595 H   0  0  0  0  0  0  0  0  0  0  0  0
    2.0705  -10.4580    1.9522 H   0  0  0  0  0  0  0  0  0  0  0  0
    3.9189   -8.8271    2.4390 H   0  0  0  0  0  0  0  0  0  0  0  0
    4.3556   -8.8213    0.7257 H   0  0  0  0  0  0  0  0  0  0  0  0
    4.5186  -10.3005    1.6696 H   0  0  0  0  0  0  0  0  0  0  0  0
    2.8013   -9.8990   -5.0360 H   0  0  0  0  0  0  0  0  0  0  0  0
    5.1176   -9.1246   -5.4109 H   0  0  0  0  0  0  0  0  0  0  0  0
    6.5768   -8.8885   -7.5542 H   0  0  0  0  0  0  0  0  0  0  0  0
  1  2  2  0  0  0  0
  2  3  1  0  0  0  0
  3  4  2  0  0  0  0
  4  5  1  0  0  0  0
  5  6  2  0  0  0  0
  6  7  1  0  0  0  0
  7  8  2  0  0  0  0
  8  9  1  0  0  0  0
  9 10  1  0  0  0  0
 10 11  1  0  0  0  0
  8 12  1  0  0  0  0
 12 13  1  0  0  0  0
 12 14  2  0  0  0  0
  4 15  1  0  0  0  0
 15 16  2  0  0  0  0
 16 17  1  0  0  0  0
 17 18  1  0  0  0  0
 18 19  2  0  0  0  0
 19 20  1  0  0  0  0
 20 21  2  0  0  0  0
 21 22  1  0  0  0  0
 22 23  1  0  0  0  0
 23 24  1  0  0  0  0
 21 25  1  0  0  0  0
 25 26  2  0  0  0  0
 25 27  1  0  0  0  0
 17 28  2  0  0  0  0
 28 29  1  0  0  0  0
 16 30  1  0  0  0  0
 30 31  2  0  0  0  0
 31 32  1  0  0  0  0
 31 33  1  0  0  0  0
 33 34  2  0  0  0  0
 34 35  1  0  0  0  0
 35 36  2  0  0  0  0
 36 37  1  0  0  0  0
 37 38  2  0  0  0  0
 38 39  1  0  0  0  0
 39 40  2  0  0  0  0
 40 41  1  0  0  0  0
 41 42  1  0  0  0  0
 42 43  1  0  0  0  0
 40 44  1  0  0  0  0
 44 45  1  0  0  0  0
 44 46  2  0  0  0  0
 36 47  1  0  0  0  0
 47 48  2  0  0  0  0
 48 49  1  0  0  0  0
 49 50  1  0  0  0  0
 50 51  2  0  0  0  0
 51 52  1  0  0  0  0
 52 53  2  0  0  0  0
 53 54  1  0  0  0  0
 54 55  1  0  0  0  0
 55 56  1  0  0  0  0
 53 57  1  0  0  0  0
 57 58  2  0  0  0  0
 57 59  1  0  0  0  0
 49 60  2  0  0  0  0
 60 61  1  0  0  0  0
 48 62  1  0  0  0  0
 62 63  2  0  0  0  0
 63 64  1  0  0  0  0
 63 65  1  0  0  0  0
 65 66  2  0  0  0  0
 66 67  1  0  0  0  0
 67 68  1  0  0  0  0
 68 69  1  0  0  0  0
 69 70  1  0  0  0  0
 69 71  2  0  0  0  0
 68 72  2  0  0  0  0
 72 73  1  0  0  0  0
 73 74  2  0  0  0  0
 74 75  1  0  0  0  0
 75 76  1  0  0  0  0
 76 77  1  0  0  0  0
 77 78  1  0  0  0  0
 77 79  2  0  0  0  0
 76 80  2  0  0  0  0
 80 81  1  0  0  0  0
 81 82  2  0  0  0  0
 82 83  1  0  0  0  0
 83 84  2  0  0  0  0
 84 85  1  0  0  0  0
 85 86  2  0  0  0  0
 86 87  1  0  0  0  0
 87 88  2  0  0  0  0
 88 89  1  0  0  0  0
 89 90  1  0  0  0  0
 90 91  1  0  0  0  0
 88 92  1  0  0  0  0
 92 93  1  0  0  0  0
 92 94  2  0  0  0  0
 84 95  1  0  0  0  0
 95 96  2  0  0  0  0
 96 97  1  0  0  0  0
 97 98  1  0  0  0  0
 98 99  2  0  0  0  0
 99100  1  0  0  0  0
100101  2  0  0  0  0
101102  1  0  0  0  0
102103  1  0  0  0  0
103104  1  0  0  0  0
101105  1  0  0  0  0
105106  2  0  0  0  0
105107  1  0  0  0  0
 97108  2  0  0  0  0
108109  1  0  0  0  0
 96110  1  0  0  0  0
110111  2  0  0  0  0
111112  1  0  0  0  0
111113  1  0  0  0  0
113114  2  0  0  0  0
114115  1  0  0  0  0
115116  2  0  0  0  0
116117  1  0  0  0  0
117118  2  0  0  0  0
118119  1  0  0  0  0
119120  2  0  0  0  0
120121  1  0  0  0  0
121122  1  0  0  0  0
122123  1  0  0  0  0
120124  1  0  0  0  0
124125  1  0  0  0  0
124126  2  0  0  0  0
116127  1  0  0  0  0
127128  2  0  0  0  0
128129  1  0  0  0  0
129130  1  0  0  0  0
130131  2  0  0  0  0
131132  1  0  0  0  0
132133  2  0  0  0  0
133134  1  0  0  0  0
134135  1  0  0  0  0
135136  1  0  0  0  0
133137  1  0  0  0  0
137138  2  0  0  0  0
137139  1  0  0  0  0
129140  2  0  0  0  0
140141  1  0  0  0  0
128142  1  0  0  0  0
142143  2  0  0  0  0
143144  1  0  0  0  0
 29  1  1  0  0  0  0
 61 33  1  0  0  0  0
 72 65  1  0  0  0  0
 80 73  1  0  0  0  0
109 81  1  0  0  0  0
141113  1  0  0  0  0
 28  3  1  0  0  0  0
 60 35  1  0  0  0  0
108 83  1  0  0  0  0
140115  1  0  0  0  0
 14  5  1  0  0  0  0
 32 15  1  0  0  0  0
 46 37  1  0  0  0  0
 64 47  1  0  0  0  0
 94 85  1  0  0  0  0
112 95  1  0  0  0  0
126117  1  0  0  0  0
144127  1  0  0  0  0
 26 18  1  0  0  0  0
 58 50  1  0  0  0  0
106 98  1  0  0  0  0
138130  1  0  0  0  0
  1145  1  0  0  0  0
  2146  1  0  0  0  0
  6147  1  0  0  0  0
  7148  1  0  0  0  0
 10149  1  0  0  0  0
 10150  1  0  0  0  0
 11151  1  0  0  0  0
 11152  1  0  0  0  0
 11153  1  0  0  0  0
 14154  1  0  0  0  0
 19155  1  0  0  0  0
 20156  1  0  0  0  0
 23157  1  0  0  0  0
 23158  1  0  0  0  0
 24159  1  0  0  0  0
 24160  1  0  0  0  0
 24161  1  0  0  0  0
 26162  1  0  0  0  0
 30163  1  0  0  0  0
 34164  1  0  0  0  0
 38165  1  0  0  0  0
 39166  1  0  0  0  0
 42167  1  0  0  0  0
 42168  1  0  0  0  0
 43169  1  0  0  0  0
 43170  1  0  0  0  0
 43171  1  0  0  0  0
 46172  1  0  0  0  0
 51173  1  0  0  0  0
 52174  1  0  0  0  0
 55175  1  0  0  0  0
 55176  1  0  0  0  0
 56177  1  0  0  0  0
 56178  1  0  0  0  0
 56179  1  0  0  0  0
 58180  1  0  0  0  0
 62181  1  0  0  0  0
 66182  1  0  0  0  0
 74183  1  0  0  0  0
 82184  1  0  0  0  0
 86185  1  0  0  0  0
 87186  1  0  0  0  0
 90187  1  0  0  0  0
 90188  1  0  0  0  0
 91189  1  0  0  0  0
 91190  1  0  0  0  0
 91191  1  0  0  0  0
 94192  1  0  0  0  0
 99193  1  0  0  0  0
100194  1  0  0  0  0
103195  1  0  0  0  0
103196  1  0  0  0  0
104197  1  0  0  0  0
104198  1  0  0  0  0
104199  1  0  0  0  0
106200  1  0  0  0  0
110201  1  0  0  0  0
114202  1  0  0  0  0
118203  1  0  0  0  0
119204  1  0  0  0  0
122205  1  0  0  0  0
122206  1  0  0  0  0
123207  1  0  0  0  0
123208  1  0  0  0  0
123209  1  0  0  0  0
126210  1  0  0  0  0
131211  1  0  0  0  0
132212  1  0  0  0  0
135213  1  0  0  0  0
135214  1  0  0  0  0
136215  1  0  0  0  0
136216  1  0  0  0  0
136217  1  0  0  0  0
138218  1  0  0  0  0
142219  1  0  0  0  0
143220  1  0  0  0  0
M  CHG  1  69   1
M  CHG  1  70  -1
M  CHG  1  77   1
M  CHG  1  78  -1
M  END
