
  xtb     03082207063D
 energy: -422.835912021106 gnorm: 0.000241569153 xtb: 6.4.1 (unknown)
242267  0     0  0            999 V2000
   -0.5656  -11.3554    7.0126 C   0  0  0  0  0  0  0  0  0  0  0  0
    0.1701  -10.2979    6.6141 C   0  0  0  0  0  0  0  0  0  0  0  0
   -0.3776   -9.6388    5.4736 C   0  0  0  0  0  0  0  0  0  0  0  0
    0.1090   -8.4988    4.8169 C   0  0  0  0  0  0  0  0  0  0  0  0
    1.3915   -7.8725    5.1565 C   0  0  0  0  0  0  0  0  0  0  0  0
    1.4894   -6.4963    5.3383 C   0  0  0  0  0  0  0  0  0  0  0  0
    2.7133   -5.8900    5.5372 C   0  0  0  0  0  0  0  0  0  0  0  0
    3.8865   -6.6366    5.5392 C   0  0  0  0  0  0  0  0  0  0  0  0
    5.5039   -5.9538    5.6920 S   0  0  0  0  0  0  0  0  0  0  0  0
    5.2831   -4.2462    5.0837 C   0  0  0  0  0  0  0  0  0  0  0  0
    4.8305   -4.1958    3.6375 C   0  0  0  0  0  0  0  0  0  0  0  0
    3.7682   -8.0208    5.4081 C   0  0  0  0  0  0  0  0  0  0  0  0
    4.8796   -8.7821    5.4384 F   0  0  0  0  0  0  0  0  0  0  0  0
    2.5526   -8.6401    5.2210 C   0  0  0  0  0  0  0  0  0  0  0  0
   -0.6506   -8.0166    3.7612 C   0  0  0  0  0  0  0  0  0  0  0  0
   -1.8365   -8.6479    3.3188 C   0  0  0  0  0  0  0  0  0  0  0  0
   -2.3257   -9.7901    3.9726 C   0  0  0  0  0  0  0  0  0  0  0  0
   -3.5539  -10.4292    3.4874 C   0  0  0  0  0  0  0  0  0  0  0  0
   -4.6962   -9.6667    3.2505 C   0  0  0  0  0  0  0  0  0  0  0  0
   -5.8204  -10.2231    2.6756 C   0  0  0  0  0  0  0  0  0  0  0  0
   -5.8402  -11.5634    2.3056 C   0  0  0  0  0  0  0  0  0  0  0  0
   -7.1904  -12.3556    1.4965 S   0  0  0  0  0  0  0  0  0  0  0  0
   -8.0510  -10.9810    0.6507 C   0  0  0  0  0  0  0  0  0  0  0  0
   -7.1972  -10.3222   -0.4151 C   0  0  0  0  0  0  0  0  0  0  0  0
   -4.7153  -12.3309    2.6115 C   0  0  0  0  0  0  0  0  0  0  0  0
   -3.5885  -11.7892    3.1907 C   0  0  0  0  0  0  0  0  0  0  0  0
   -4.7130  -13.6425    2.3050 F   0  0  0  0  0  0  0  0  0  0  0  0
   -1.5760  -10.2589    5.0410 C   0  0  0  0  0  0  0  0  0  0  0  0
   -1.9703  -11.6323    6.0408 S   0  0  0  0  0  0  0  0  0  0  0  0
   -2.3547   -8.0338    2.1523 C   0  0  0  0  0  0  0  0  0  0  0  0
   -1.6313   -6.9625    1.7246 C   0  0  0  0  0  0  0  0  0  0  0  0
   -0.2455   -6.6472    2.7504 S   0  0  0  0  0  0  0  0  0  0  0  0
   -1.9165   -6.1798    0.5677 C   0  0  0  0  0  0  0  0  0  0  0  0
   -1.3141   -5.0504    0.1029 C   0  0  0  0  0  0  0  0  0  0  0  0
   -1.8671   -4.5688   -1.1152 C   0  0  0  0  0  0  0  0  0  0  0  0
   -1.5262   -3.4083   -1.8363 C   0  0  0  0  0  0  0  0  0  0  0  0
   -0.4070   -2.5680   -1.3843 C   0  0  0  0  0  0  0  0  0  0  0  0
    0.8238   -3.1570   -1.0939 C   0  0  0  0  0  0  0  0  0  0  0  0
    1.8724   -2.3995   -0.6145 C   0  0  0  0  0  0  0  0  0  0  0  0
    1.7264   -1.0357   -0.4052 C   0  0  0  0  0  0  0  0  0  0  0  0
    3.1119   -0.0840    0.2017 S   0  0  0  0  0  0  0  0  0  0  0  0
    2.8675   -0.2867    2.0064 C   0  0  0  0  0  0  0  0  0  0  0  0
    1.7035    0.5337    2.5216 C   0  0  0  0  0  0  0  0  0  0  0  0
    0.5072   -0.4506   -0.7195 C   0  0  0  0  0  0  0  0  0  0  0  0
    0.3231    0.8673   -0.5246 F   0  0  0  0  0  0  0  0  0  0  0  0
   -0.5517   -1.1964   -1.2060 C   0  0  0  0  0  0  0  0  0  0  0  0
   -2.2794   -3.1376   -2.9712 C   0  0  0  0  0  0  0  0  0  0  0  0
   -3.3113   -3.9920   -3.4332 C   0  0  0  0  0  0  0  0  0  0  0  0
   -3.6727   -5.1309   -2.7012 C   0  0  0  0  0  0  0  0  0  0  0  0
   -4.8202   -5.9708   -3.0635 C   0  0  0  0  0  0  0  0  0  0  0  0
   -6.0725   -5.4003   -3.2913 C   0  0  0  0  0  0  0  0  0  0  0  0
   -7.1716   -6.1924   -3.5395 C   0  0  0  0  0  0  0  0  0  0  0  0
   -7.0756   -7.5850   -3.5667 C   0  0  0  0  0  0  0  0  0  0  0  0
   -8.5831   -8.4729   -3.7951 S   0  0  0  0  0  0  0  0  0  0  0  0
   -8.0880  -10.0728   -4.5505 C   0  0  0  0  0  0  0  0  0  0  0  0
   -9.3052  -10.6926   -5.2079 C   0  0  0  0  0  0  0  0  0  0  0  0
   -5.8190   -8.1397   -3.3430 C   0  0  0  0  0  0  0  0  0  0  0  0
   -4.7080   -7.3557   -3.1065 C   0  0  0  0  0  0  0  0  0  0  0  0
   -5.6403   -9.4794   -3.3346 F   0  0  0  0  0  0  0  0  0  0  0  0
   -2.9321   -5.3896   -1.5600 C   0  0  0  0  0  0  0  0  0  0  0  0
   -3.2218   -6.7162   -0.4723 S   0  0  0  0  0  0  0  0  0  0  0  0
   -3.8450   -3.5702   -4.6752 C   0  0  0  0  0  0  0  0  0  0  0  0
   -3.3048   -2.4121   -5.1537 C   0  0  0  0  0  0  0  0  0  0  0  0
   -2.0768   -1.7912   -4.0591 S   0  0  0  0  0  0  0  0  0  0  0  0
   -3.6397   -1.7456   -6.3884 C   0  0  0  0  0  0  0  0  0  0  0  0
   -4.8535   -1.9581   -7.0579 C   0  0  0  0  0  0  0  0  0  0  0  0
   -5.9785   -2.6655   -6.7090 N   0  0  0  0  0  0  0  0  0  0  0  0
   -6.8948   -2.4718   -7.7000 C   0  0  0  0  0  0  0  0  0  0  0  0
   -6.4676   -1.7117   -8.6536 N   0  0  0  0  0  0  0  0  0  0  0  0
   -5.1850   -1.3591   -8.3028 C   0  0  0  0  0  0  0  0  0  0  0  0
   -4.3355   -0.4735   -8.9724 C   0  0  0  0  0  0  0  0  0  0  0  0
   -3.1227   -0.2469   -8.3162 C   0  0  0  0  0  0  0  0  0  0  0  0
   -2.8010   -0.8491   -7.0648 C   0  0  0  0  0  0  0  0  0  0  0  0
   -1.5622   -0.3600   -6.7526 N   0  0  0  0  0  0  0  0  0  0  0  0
   -1.1987    0.4696   -7.7684 C   0  0  0  0  0  0  0  0  0  0  0  0
   -2.0818    0.5567   -8.7091 N   0  0  0  0  0  0  0  0  0  0  0  0
   -4.7420    0.1840  -10.2071 C   0  0  0  0  0  0  0  0  0  0  0  0
   -4.6067    1.4950  -10.4431 C   0  0  0  0  0  0  0  0  0  0  0  0
   -4.1160    2.4312   -9.4431 C   0  0  0  0  0  0  0  0  0  0  0  0
   -3.1434    3.3989   -9.6859 C   0  0  0  0  0  0  0  0  0  0  0  0
   -2.5327    3.7780  -10.8541 N   0  0  0  0  0  0  0  0  0  0  0  0
   -1.5925    4.7055  -10.5215 C   0  0  0  0  0  0  0  0  0  0  0  0
   -1.5348    4.9524   -9.2526 N   0  0  0  0  0  0  0  0  0  0  0  0
   -2.4888    4.1536   -8.6721 C   0  0  0  0  0  0  0  0  0  0  0  0
   -2.7625    3.9531   -7.3145 C   0  0  0  0  0  0  0  0  0  0  0  0
   -3.8128    3.0587   -7.0653 C   0  0  0  0  0  0  0  0  0  0  0  0
   -4.4853    2.3641   -8.0991 C   0  0  0  0  0  0  0  0  0  0  0  0
   -5.4538    1.6301   -7.4604 N   0  0  0  0  0  0  0  0  0  0  0  0
   -5.3092    1.8718   -6.1293 C   0  0  0  0  0  0  0  0  0  0  0  0
   -4.3523    2.6990   -5.8535 N   0  0  0  0  0  0  0  0  0  0  0  0
   -1.9850    4.4485   -6.2158 C   0  0  0  0  0  0  0  0  0  0  0  0
   -1.1510    5.5003   -6.1875 C   0  0  0  0  0  0  0  0  0  0  0  0
   -0.3540    5.6666   -4.9943 C   0  0  0  0  0  0  0  0  0  0  0  0
    0.3222    4.6413   -4.4109 C   0  0  0  0  0  0  0  0  0  0  0  0
    0.8554    4.9432   -3.1349 C   0  0  0  0  0  0  0  0  0  0  0  0
    1.5734    4.0942   -2.2791 C   0  0  0  0  0  0  0  0  0  0  0  0
    1.9216    2.7219   -2.6616 C   0  0  0  0  0  0  0  0  0  0  0  0
    3.2128    2.2416   -2.4649 C   0  0  0  0  0  0  0  0  0  0  0  0
    3.5648    0.9496   -2.8033 C   0  0  0  0  0  0  0  0  0  0  0  0
    2.6344    0.0895   -3.3710 C   0  0  0  0  0  0  0  0  0  0  0  0
    2.9232   -1.5917   -3.8183 S   0  0  0  0  0  0  0  0  0  0  0  0
    4.5174   -1.9854   -3.0206 C   0  0  0  0  0  0  0  0  0  0  0  0
    5.7097   -1.6504   -3.8976 C   0  0  0  0  0  0  0  0  0  0  0  0
    1.3552    0.5945   -3.5926 C   0  0  0  0  0  0  0  0  0  0  0  0
    0.4326   -0.2069   -4.1846 F   0  0  0  0  0  0  0  0  0  0  0  0
    0.9808    1.8679   -3.2358 C   0  0  0  0  0  0  0  0  0  0  0  0
    1.9307    4.6222   -1.0483 C   0  0  0  0  0  0  0  0  0  0  0  0
    1.6172    5.9441   -0.6470 C   0  0  0  0  0  0  0  0  0  0  0  0
    0.9515    6.8113   -1.5324 C   0  0  0  0  0  0  0  0  0  0  0  0
    0.6739    8.2046   -1.1653 C   0  0  0  0  0  0  0  0  0  0  0  0
    1.6858    9.0234   -0.6719 C   0  0  0  0  0  0  0  0  0  0  0  0
    1.4433   10.3422   -0.3396 C   0  0  0  0  0  0  0  0  0  0  0  0
    0.1752   10.8913   -0.4896 C   0  0  0  0  0  0  0  0  0  0  0  0
   -0.2829   12.5444   -0.0865 S   0  0  0  0  0  0  0  0  0  0  0  0
    1.3092   13.4209    0.0928 C   0  0  0  0  0  0  0  0  0  0  0  0
    2.0163   13.6080   -1.2362 C   0  0  0  0  0  0  0  0  0  0  0  0
   -0.8325   10.0555   -0.9749 C   0  0  0  0  0  0  0  0  0  0  0  0
   -0.6033    8.7416   -1.3135 C   0  0  0  0  0  0  0  0  0  0  0  0
   -2.0781   10.5508   -1.1147 F   0  0  0  0  0  0  0  0  0  0  0  0
    0.5705    6.2791   -2.7555 C   0  0  0  0  0  0  0  0  0  0  0  0
   -0.3017    7.1191   -4.0194 S   0  0  0  0  0  0  0  0  0  0  0  0
    1.9928    6.1883    0.7001 C   0  0  0  0  0  0  0  0  0  0  0  0
    2.5835    5.1181    1.3017 C   0  0  0  0  0  0  0  0  0  0  0  0
    2.7164    3.7378    0.2272 S   0  0  0  0  0  0  0  0  0  0  0  0
    3.0730    4.9885    2.6341 C   0  0  0  0  0  0  0  0  0  0  0  0
    3.7528    3.9228    3.1419 C   0  0  0  0  0  0  0  0  0  0  0  0
    4.0968    4.0641    4.5087 C   0  0  0  0  0  0  0  0  0  0  0  0
    4.8048    3.1590    5.3130 C   0  0  0  0  0  0  0  0  0  0  0  0
    5.3972    1.9422    4.7463 C   0  0  0  0  0  0  0  0  0  0  0  0
    5.2150    0.6944    5.3389 C   0  0  0  0  0  0  0  0  0  0  0  0
    5.8120   -0.4276    4.8072 C   0  0  0  0  0  0  0  0  0  0  0  0
    6.6287   -0.3589    3.6773 C   0  0  0  0  0  0  0  0  0  0  0  0
    7.4188   -1.8648    3.1952 S   0  0  0  0  0  0  0  0  0  0  0  0
    7.6930   -1.7584    1.3897 C   0  0  0  0  0  0  0  0  0  0  0  0
    6.3998   -1.6398    0.6098 C   0  0  0  0  0  0  0  0  0  0  0  0
    6.8068    0.8950    3.1010 C   0  0  0  0  0  0  0  0  0  0  0  0
    7.6054    1.0614    2.0227 F   0  0  0  0  0  0  0  0  0  0  0  0
    6.1952    2.0231    3.6090 C   0  0  0  0  0  0  0  0  0  0  0  0
    4.9508    3.5000    6.6504 C   0  0  0  0  0  0  0  0  0  0  0  0
    4.4719    4.7168    7.1922 C   0  0  0  0  0  0  0  0  0  0  0  0
    3.8059    5.6434    6.3754 C   0  0  0  0  0  0  0  0  0  0  0  0
    3.3509    6.9381    6.8980 C   0  0  0  0  0  0  0  0  0  0  0  0
    4.2249    7.7756    7.5844 C   0  0  0  0  0  0  0  0  0  0  0  0
    3.8101    9.0006    8.0711 C   0  0  0  0  0  0  0  0  0  0  0  0
    2.5018    9.4328    7.8873 C   0  0  0  0  0  0  0  0  0  0  0  0
    1.8255   10.9496    8.4747 S   0  0  0  0  0  0  0  0  0  0  0  0
    3.2803   11.9245    8.9921 C   0  0  0  0  0  0  0  0  0  0  0  0
    4.0940   12.4200    7.8114 C   0  0  0  0  0  0  0  0  0  0  0  0
    1.6352    8.5797    7.2003 C   0  0  0  0  0  0  0  0  0  0  0  0
    2.0367    7.3593    6.7071 C   0  0  0  0  0  0  0  0  0  0  0  0
    0.3558    8.9607    7.0173 F   0  0  0  0  0  0  0  0  0  0  0  0
    3.6140    5.2805    5.0506 C   0  0  0  0  0  0  0  0  0  0  0  0
    2.8128    6.2418    3.8311 S   0  0  0  0  0  0  0  0  0  0  0  0
    4.7506    4.8139    8.5889 C   0  0  0  0  0  0  0  0  0  0  0  0
    5.4257    3.7496    9.0660 C   0  0  0  0  0  0  0  0  0  0  0  0
    5.7679    2.5500    7.8655 S   0  0  0  0  0  0  0  0  0  0  0  0
   -0.3770  -12.0155    7.8366 H   0  0  0  0  0  0  0  0  0  0  0  0
    1.0647   -9.9707    7.1119 H   0  0  0  0  0  0  0  0  0  0  0  0
    0.5950   -5.8922    5.3347 H   0  0  0  0  0  0  0  0  0  0  0  0
    2.7494   -4.8233    5.6884 H   0  0  0  0  0  0  0  0  0  0  0  0
    4.5977   -3.7240    5.7512 H   0  0  0  0  0  0  0  0  0  0  0  0
    6.2776   -3.8118    5.1869 H   0  0  0  0  0  0  0  0  0  0  0  0
    4.7464   -3.1582    3.3206 H   0  0  0  0  0  0  0  0  0  0  0  0
    5.5595   -4.6955    3.0043 H   0  0  0  0  0  0  0  0  0  0  0  0
    3.8655   -4.6822    3.5072 H   0  0  0  0  0  0  0  0  0  0  0  0
    2.5217   -9.7094    5.0816 H   0  0  0  0  0  0  0  0  0  0  0  0
   -4.7070   -8.6240    3.5311 H   0  0  0  0  0  0  0  0  0  0  0  0
   -6.6864   -9.6022    2.5107 H   0  0  0  0  0  0  0  0  0  0  0  0
   -8.9179  -11.4696    0.2058 H   0  0  0  0  0  0  0  0  0  0  0  0
   -8.4018  -10.2696    1.3975 H   0  0  0  0  0  0  0  0  0  0  0  0
   -7.7838   -9.5714   -0.9419 H   0  0  0  0  0  0  0  0  0  0  0  0
   -6.3267   -9.8357    0.0209 H   0  0  0  0  0  0  0  0  0  0  0  0
   -6.8488  -11.0622   -1.1320 H   0  0  0  0  0  0  0  0  0  0  0  0
   -2.7339  -12.4223    3.3689 H   0  0  0  0  0  0  0  0  0  0  0  0
   -3.2229   -8.3900    1.6276 H   0  0  0  0  0  0  0  0  0  0  0  0
   -0.5110   -4.5681    0.6310 H   0  0  0  0  0  0  0  0  0  0  0  0
    0.9630   -4.2128   -1.2682 H   0  0  0  0  0  0  0  0  0  0  0  0
    2.8229   -2.8612   -0.3942 H   0  0  0  0  0  0  0  0  0  0  0  0
    2.7378   -1.3513    2.2045 H   0  0  0  0  0  0  0  0  0  0  0  0
    3.8074    0.0484    2.4462 H   0  0  0  0  0  0  0  0  0  0  0  0
    1.8130    1.5737    2.2221 H   0  0  0  0  0  0  0  0  0  0  0  0
    1.6679    0.4836    3.6084 H   0  0  0  0  0  0  0  0  0  0  0  0
    0.7612    0.1604    2.1260 H   0  0  0  0  0  0  0  0  0  0  0  0
   -1.4845   -0.6995   -1.4233 H   0  0  0  0  0  0  0  0  0  0  0  0
   -6.1850   -4.3275   -3.2363 H   0  0  0  0  0  0  0  0  0  0  0  0
   -8.1421   -5.7481   -3.7002 H   0  0  0  0  0  0  0  0  0  0  0  0
   -7.6941  -10.7174   -3.7668 H   0  0  0  0  0  0  0  0  0  0  0  0
   -7.3096   -9.8592   -5.2812 H   0  0  0  0  0  0  0  0  0  0  0  0
   -9.7012  -10.0363   -5.9796 H   0  0  0  0  0  0  0  0  0  0  0  0
  -10.0868  -10.8711   -4.4727 H   0  0  0  0  0  0  0  0  0  0  0  0
   -9.0309  -11.6421   -5.6622 H   0  0  0  0  0  0  0  0  0  0  0  0
   -3.7590   -7.8441   -2.9513 H   0  0  0  0  0  0  0  0  0  0  0  0
   -4.5387   -4.1836   -5.2204 H   0  0  0  0  0  0  0  0  0  0  0  0
   -6.1279   -3.1647   -5.8494 H   0  0  0  0  0  0  0  0  0  0  0  0
   -7.8704   -2.9170   -7.6711 H   0  0  0  0  0  0  0  0  0  0  0  0
   -1.0222   -0.5671   -5.9277 H   0  0  0  0  0  0  0  0  0  0  0  0
   -0.2643    0.9961   -7.7709 H   0  0  0  0  0  0  0  0  0  0  0  0
   -5.2045   -0.4590  -10.9430 H   0  0  0  0  0  0  0  0  0  0  0  0
   -4.8631    1.8939  -11.4167 H   0  0  0  0  0  0  0  0  0  0  0  0
   -2.7257    3.4084  -11.7688 H   0  0  0  0  0  0  0  0  0  0  0  0
   -0.9723    5.1820  -11.2565 H   0  0  0  0  0  0  0  0  0  0  0  0
   -6.1209    1.0216   -7.9041 H   0  0  0  0  0  0  0  0  0  0  0  0
   -5.9431    1.4159   -5.3928 H   0  0  0  0  0  0  0  0  0  0  0  0
   -2.1182    3.8679   -5.3110 H   0  0  0  0  0  0  0  0  0  0  0  0
   -1.0656    6.1869   -7.0145 H   0  0  0  0  0  0  0  0  0  0  0  0
    0.4476    3.6971   -4.9062 H   0  0  0  0  0  0  0  0  0  0  0  0
    3.9665    2.8899   -2.0461 H   0  0  0  0  0  0  0  0  0  0  0  0
    4.5734    0.6236   -2.6152 H   0  0  0  0  0  0  0  0  0  0  0  0
    4.5393   -1.4669   -2.0627 H   0  0  0  0  0  0  0  0  0  0  0  0
    4.4650   -3.0597   -2.8420 H   0  0  0  0  0  0  0  0  0  0  0  0
    5.6568   -2.2064   -4.8308 H   0  0  0  0  0  0  0  0  0  0  0  0
    6.6330   -1.9181   -3.3866 H   0  0  0  0  0  0  0  0  0  0  0  0
    5.7393   -0.5900   -4.1361 H   0  0  0  0  0  0  0  0  0  0  0  0
   -0.0455    2.1700   -3.3688 H   0  0  0  0  0  0  0  0  0  0  0  0
    2.6852    8.6283   -0.5655 H   0  0  0  0  0  0  0  0  0  0  0  0
    2.2555   10.9388    0.0433 H   0  0  0  0  0  0  0  0  0  0  0  0
    1.9213   12.8910    0.8215 H   0  0  0  0  0  0  0  0  0  0  0  0
    1.0219   14.3829    0.5174 H   0  0  0  0  0  0  0  0  0  0  0  0
    2.2528   12.6489   -1.6921 H   0  0  0  0  0  0  0  0  0  0  0  0
    2.9418   14.1620   -1.0896 H   0  0  0  0  0  0  0  0  0  0  0  0
    1.3822   14.1649   -1.9219 H   0  0  0  0  0  0  0  0  0  0  0  0
   -1.4240    8.1423   -1.6738 H   0  0  0  0  0  0  0  0  0  0  0  0
    1.8083    7.1153    1.2136 H   0  0  0  0  0  0  0  0  0  0  0  0
    3.9881    3.0553    2.5519 H   0  0  0  0  0  0  0  0  0  0  0  0
    4.5894    0.6022    6.2128 H   0  0  0  0  0  0  0  0  0  0  0  0
    5.6685   -1.3896    5.2727 H   0  0  0  0  0  0  0  0  0  0  0  0
    8.1977   -2.6998    1.1697 H   0  0  0  0  0  0  0  0  0  0  0  0
    8.3730   -0.9362    1.1806 H   0  0  0  0  0  0  0  0  0  0  0  0
    6.6146   -1.6889   -0.4558 H   0  0  0  0  0  0  0  0  0  0  0  0
    5.7212   -2.4508    0.8662 H   0  0  0  0  0  0  0  0  0  0  0  0
    5.9022   -0.6940    0.8113 H   0  0  0  0  0  0  0  0  0  0  0  0
    6.3877    2.9716    3.1321 H   0  0  0  0  0  0  0  0  0  0  0  0
    5.2522    7.4733    7.7233 H   0  0  0  0  0  0  0  0  0  0  0  0
    4.5195    9.6144    8.6020 H   0  0  0  0  0  0  0  0  0  0  0  0
    3.8709   11.3297    9.6877 H   0  0  0  0  0  0  0  0  0  0  0  0
    2.8430   12.7606    9.5380 H   0  0  0  0  0  0  0  0  0  0  0  0
    3.4753   13.0365    7.1637 H   0  0  0  0  0  0  0  0  0  0  0  0
    4.9327   13.0174    8.1642 H   0  0  0  0  0  0  0  0  0  0  0  0
    4.4804   11.5891    7.2250 H   0  0  0  0  0  0  0  0  0  0  0  0
    1.3189    6.7393    6.1941 H   0  0  0  0  0  0  0  0  0  0  0  0
    4.4370    5.6434    9.1962 H   0  0  0  0  0  0  0  0  0  0  0  0
    5.7531    3.5719   10.0717 H   0  0  0  0  0  0  0  0  0  0  0  0
  1  2  2  0  0  0  0
  2  3  1  0  0  0  0
  3  4  2  0  0  0  0
  4  5  1  0  0  0  0
  5  6  2  0  0  0  0
  6  7  1  0  0  0  0
  7  8  2  0  0  0  0
  8  9  1  0  0  0  0
  9 10  1  0  0  0  0
 10 11  1  0  0  0  0
  8 12  1  0  0  0  0
 12 13  1  0  0  0  0
 12 14  2  0  0  0  0
  4 15  1  0  0  0  0
 15 16  2  0  0  0  0
 16 17  1  0  0  0  0
 17 18  1  0  0  0  0
 18 19  2  0  0  0  0
 19 20  1  0  0  0  0
 20 21  2  0  0  0  0
 21 22  1  0  0  0  0
 22 23  1  0  0  0  0
 23 24  1  0  0  0  0
 21 25  1  0  0  0  0
 25 26  2  0  0  0  0
 25 27  1  0  0  0  0
 17 28  2  0  0  0  0
 28 29  1  0  0  0  0
 16 30  1  0  0  0  0
 30 31  2  0  0  0  0
 31 32  1  0  0  0  0
 31 33  1  0  0  0  0
 33 34  2  0  0  0  0
 34 35  1  0  0  0  0
 35 36  2  0  0  0  0
 36 37  1  0  0  0  0
 37 38  2  0  0  0  0
 38 39  1  0  0  0  0
 39 40  2  0  0  0  0
 40 41  1  0  0  0  0
 41 42  1  0  0  0  0
 42 43  1  0  0  0  0
 40 44  1  0  0  0  0
 44 45  1  0  0  0  0
 44 46  2  0  0  0  0
 36 47  1  0  0  0  0
 47 48  2  0  0  0  0
 48 49  1  0  0  0  0
 49 50  1  0  0  0  0
 50 51  2  0  0  0  0
 51 52  1  0  0  0  0
 52 53  2  0  0  0  0
 53 54  1  0  0  0  0
 54 55  1  0  0  0  0
 55 56  1  0  0  0  0
 53 57  1  0  0  0  0
 57 58  2  0  0  0  0
 57 59  1  0  0  0  0
 49 60  2  0  0  0  0
 60 61  1  0  0  0  0
 48 62  1  0  0  0  0
 62 63  2  0  0  0  0
 63 64  1  0  0  0  0
 63 65  1  0  0  0  0
 65 66  2  0  0  0  0
 66 67  1  0  0  0  0
 67 68  1  0  0  0  0
 68 69  2  0  0  0  0
 69 70  1  0  0  0  0
 70 71  2  0  0  0  0
 71 72  1  0  0  0  0
 72 73  2  0  0  0  0
 73 74  1  0  0  0  0
 74 75  1  0  0  0  0
 75 76  2  0  0  0  0
 71 77  1  0  0  0  0
 77 78  2  0  0  0  0
 78 79  1  0  0  0  0
 79 80  2  0  0  0  0
 80 81  1  0  0  0  0
 81 82  1  0  0  0  0
 82 83  2  0  0  0  0
 83 84  1  0  0  0  0
 84 85  2  0  0  0  0
 85 86  1  0  0  0  0
 86 87  2  0  0  0  0
 87 88  1  0  0  0  0
 88 89  1  0  0  0  0
 89 90  2  0  0  0  0
 85 91  1  0  0  0  0
 91 92  2  0  0  0  0
 92 93  1  0  0  0  0
 93 94  2  0  0  0  0
 94 95  1  0  0  0  0
 95 96  2  0  0  0  0
 96 97  1  0  0  0  0
 97 98  2  0  0  0  0
 98 99  1  0  0  0  0
 99100  2  0  0  0  0
100101  1  0  0  0  0
101102  1  0  0  0  0
102103  1  0  0  0  0
100104  1  0  0  0  0
104105  1  0  0  0  0
104106  2  0  0  0  0
 96107  1  0  0  0  0
107108  2  0  0  0  0
108109  1  0  0  0  0
109110  1  0  0  0  0
110111  2  0  0  0  0
111112  1  0  0  0  0
112113  2  0  0  0  0
113114  1  0  0  0  0
114115  1  0  0  0  0
115116  1  0  0  0  0
113117  1  0  0  0  0
117118  2  0  0  0  0
117119  1  0  0  0  0
109120  2  0  0  0  0
120121  1  0  0  0  0
108122  1  0  0  0  0
122123  2  0  0  0  0
123124  1  0  0  0  0
123125  1  0  0  0  0
125126  2  0  0  0  0
126127  1  0  0  0  0
127128  2  0  0  0  0
128129  1  0  0  0  0
129130  2  0  0  0  0
130131  1  0  0  0  0
131132  2  0  0  0  0
132133  1  0  0  0  0
133134  1  0  0  0  0
134135  1  0  0  0  0
132136  1  0  0  0  0
136137  1  0  0  0  0
136138  2  0  0  0  0
128139  1  0  0  0  0
139140  2  0  0  0  0
140141  1  0  0  0  0
141142  1  0  0  0  0
142143  2  0  0  0  0
143144  1  0  0  0  0
144145  2  0  0  0  0
145146  1  0  0  0  0
146147  1  0  0  0  0
147148  1  0  0  0  0
145149  1  0  0  0  0
149150  2  0  0  0  0
149151  1  0  0  0  0
141152  2  0  0  0  0
152153  1  0  0  0  0
140154  1  0  0  0  0
154155  2  0  0  0  0
155156  1  0  0  0  0
 29  1  1  0  0  0  0
 61 33  1  0  0  0  0
 73 65  1  0  0  0  0
 87 79  1  0  0  0  0
121 93  1  0  0  0  0
153125  1  0  0  0  0
 28  3  1  0  0  0  0
 60 35  1  0  0  0  0
 70 66  1  0  0  0  0
 76 72  1  0  0  0  0
 84 80  1  0  0  0  0
 90 86  1  0  0  0  0
120 95  1  0  0  0  0
152127  1  0  0  0  0
 14  5  1  0  0  0  0
 32 15  1  0  0  0  0
 46 37  1  0  0  0  0
 64 47  1  0  0  0  0
106 97  1  0  0  0  0
124107  1  0  0  0  0
138129  1  0  0  0  0
156139  1  0  0  0  0
 26 18  1  0  0  0  0
 58 50  1  0  0  0  0
118110  1  0  0  0  0
150142  1  0  0  0  0
  1157  1  0  0  0  0
  2158  1  0  0  0  0
  6159  1  0  0  0  0
  7160  1  0  0  0  0
 10161  1  0  0  0  0
 10162  1  0  0  0  0
 11163  1  0  0  0  0
 11164  1  0  0  0  0
 11165  1  0  0  0  0
 14166  1  0  0  0  0
 19167  1  0  0  0  0
 20168  1  0  0  0  0
 23169  1  0  0  0  0
 23170  1  0  0  0  0
 24171  1  0  0  0  0
 24172  1  0  0  0  0
 24173  1  0  0  0  0
 26174  1  0  0  0  0
 30175  1  0  0  0  0
 34176  1  0  0  0  0
 38177  1  0  0  0  0
 39178  1  0  0  0  0
 42179  1  0  0  0  0
 42180  1  0  0  0  0
 43181  1  0  0  0  0
 43182  1  0  0  0  0
 43183  1  0  0  0  0
 46184  1  0  0  0  0
 51185  1  0  0  0  0
 52186  1  0  0  0  0
 55187  1  0  0  0  0
 55188  1  0  0  0  0
 56189  1  0  0  0  0
 56190  1  0  0  0  0
 56191  1  0  0  0  0
 58192  1  0  0  0  0
 62193  1  0  0  0  0
 67194  1  0  0  0  0
 68195  1  0  0  0  0
 74196  1  0  0  0  0
 75197  1  0  0  0  0
 77198  1  0  0  0  0
 78199  1  0  0  0  0
 81200  1  0  0  0  0
 82201  1  0  0  0  0
 88202  1  0  0  0  0
 89203  1  0  0  0  0
 91204  1  0  0  0  0
 92205  1  0  0  0  0
 94206  1  0  0  0  0
 98207  1  0  0  0  0
 99208  1  0  0  0  0
102209  1  0  0  0  0
102210  1  0  0  0  0
103211  1  0  0  0  0
103212  1  0  0  0  0
103213  1  0  0  0  0
106214  1  0  0  0  0
111215  1  0  0  0  0
112216  1  0  0  0  0
115217  1  0  0  0  0
115218  1  0  0  0  0
116219  1  0  0  0  0
116220  1  0  0  0  0
116221  1  0  0  0  0
118222  1  0  0  0  0
122223  1  0  0  0  0
126224  1  0  0  0  0
130225  1  0  0  0  0
131226  1  0  0  0  0
134227  1  0  0  0  0
134228  1  0  0  0  0
135229  1  0  0  0  0
135230  1  0  0  0  0
135231  1  0  0  0  0
138232  1  0  0  0  0
143233  1  0  0  0  0
144234  1  0  0  0  0
147235  1  0  0  0  0
147236  1  0  0  0  0
148237  1  0  0  0  0
148238  1  0  0  0  0
148239  1  0  0  0  0
150240  1  0  0  0  0
154241  1  0  0  0  0
155242  1  0  0  0  0
M  END
