242

C         -0.56560      -11.35540        7.01260
C          0.17010      -10.29790        6.61410
C         -0.37760       -9.63880        5.47360
C          0.10900       -8.49880        4.81690
C          1.39150       -7.87250        5.15650
C          1.48940       -6.49630        5.33830
C          2.71330       -5.89000        5.53720
C          3.88650       -6.63660        5.53920
S          5.50390       -5.95380        5.69200
C          5.28310       -4.24620        5.08370
C          4.83050       -4.19580        3.63750
C          3.76820       -8.02080        5.40810
F          4.87960       -8.78210        5.43840
C          2.55260       -8.64010        5.22100
C         -0.65060       -8.01660        3.76120
C         -1.83650       -8.64790        3.31880
C         -2.32570       -9.79010        3.97260
C         -3.55390      -10.42920        3.48740
C         -4.69620       -9.66670        3.25050
C         -5.82040      -10.22310        2.67560
C         -5.84020      -11.56340        2.30560
S         -7.19040      -12.35560        1.49650
C         -8.05100      -10.98100        0.65070
C         -7.19720      -10.32220       -0.41510
C         -4.71530      -12.33090        2.61150
C         -3.58850      -11.78920        3.19070
F         -4.71300      -13.64250        2.30500
C         -1.57600      -10.25890        5.04100
S         -1.97030      -11.63230        6.04080
C         -2.35470       -8.03380        2.15230
C         -1.63130       -6.96250        1.72460
S         -0.24550       -6.64720        2.75040
C         -1.91650       -6.17980        0.56770
C         -1.31410       -5.05040        0.10290
C         -1.86710       -4.56880       -1.11520
C         -1.52620       -3.40830       -1.83630
C         -0.40700       -2.56800       -1.38430
C          0.82380       -3.15700       -1.09390
C          1.87240       -2.39950       -0.61450
C          1.72640       -1.03570       -0.40520
S          3.11190       -0.08400        0.20170
C          2.86750       -0.28670        2.00640
C          1.70350        0.53370        2.52160
C          0.50720       -0.45060       -0.71950
F          0.32310        0.86730       -0.52460
C         -0.55170       -1.19640       -1.20600
C         -2.27940       -3.13760       -2.97120
C         -3.31130       -3.99200       -3.43320
C         -3.67270       -5.13090       -2.70120
C         -4.82020       -5.97080       -3.06350
C         -6.07250       -5.40030       -3.29130
C         -7.17160       -6.19240       -3.53950
C         -7.07560       -7.58500       -3.56670
S         -8.58310       -8.47290       -3.79510
C         -8.08800      -10.07280       -4.55050
C         -9.30520      -10.69260       -5.20790
C         -5.81900       -8.13970       -3.34300
C         -4.70800       -7.35570       -3.10650
F         -5.64030       -9.47940       -3.33460
C         -2.93210       -5.38960       -1.56000
S         -3.22180       -6.71620       -0.47230
C         -3.84500       -3.57020       -4.67520
C         -3.30480       -2.41210       -5.15370
S         -2.07680       -1.79120       -4.05910
C         -3.63970       -1.74560       -6.38840
C         -4.85350       -1.95810       -7.05790
N         -5.97850       -2.66550       -6.70900
C         -6.89480       -2.47180       -7.70000
N         -6.46760       -1.71170       -8.65360
C         -5.18500       -1.35910       -8.30280
C         -4.33550       -0.47350       -8.97240
C         -3.12270       -0.24690       -8.31620
C         -2.80100       -0.84910       -7.06480
N         -1.56220       -0.36000       -6.75260
C         -1.19870        0.46960       -7.76840
N         -2.08180        0.55670       -8.70910
C         -4.74200        0.18400      -10.20710
C         -4.60670        1.49500      -10.44310
C         -4.11600        2.43120       -9.44310
C         -3.14340        3.39890       -9.68590
N         -2.53270        3.77800      -10.85410
C         -1.59250        4.70550      -10.52150
N         -1.53480        4.95240       -9.25260
C         -2.48880        4.15360       -8.67210
C         -2.76250        3.95310       -7.31450
C         -3.81280        3.05870       -7.06530
C         -4.48530        2.36410       -8.09910
N         -5.45380        1.63010       -7.46040
C         -5.30920        1.87180       -6.12930
N         -4.35230        2.69900       -5.85350
C         -1.98500        4.44850       -6.21580
C         -1.15100        5.50030       -6.18750
C         -0.35400        5.66660       -4.99430
C          0.32220        4.64130       -4.41090
C          0.85540        4.94320       -3.13490
C          1.57340        4.09420       -2.27910
C          1.92160        2.72190       -2.66160
C          3.21280        2.24160       -2.46490
C          3.56480        0.94960       -2.80330
C          2.63440        0.08950       -3.37100
S          2.92320       -1.59170       -3.81830
C          4.51740       -1.98540       -3.02060
C          5.70970       -1.65040       -3.89760
C          1.35520        0.59450       -3.59260
F          0.43260       -0.20690       -4.18460
C          0.98080        1.86790       -3.23580
C          1.93070        4.62220       -1.04830
C          1.61720        5.94410       -0.64700
C          0.95150        6.81130       -1.53240
C          0.67390        8.20460       -1.16530
C          1.68580        9.02340       -0.67190
C          1.44330       10.34220       -0.33960
C          0.17520       10.89130       -0.48960
S         -0.28290       12.54440       -0.08650
C          1.30920       13.42090        0.09280
C          2.01630       13.60800       -1.23620
C         -0.83250       10.05550       -0.97490
C         -0.60330        8.74160       -1.31350
F         -2.07810       10.55080       -1.11470
C          0.57050        6.27910       -2.75550
S         -0.30170        7.11910       -4.01940
C          1.99280        6.18830        0.70010
C          2.58350        5.11810        1.30170
S          2.71640        3.73780        0.22720
C          3.07300        4.98850        2.63410
C          3.75280        3.92280        3.14190
C          4.09680        4.06410        4.50870
C          4.80480        3.15900        5.31300
C          5.39720        1.94220        4.74630
C          5.21500        0.69440        5.33890
C          5.81200       -0.42760        4.80720
C          6.62870       -0.35890        3.67730
S          7.41880       -1.86480        3.19520
C          7.69300       -1.75840        1.38970
C          6.39980       -1.63980        0.60980
C          6.80680        0.89500        3.10100
F          7.60540        1.06140        2.02270
C          6.19520        2.02310        3.60900
C          4.95080        3.50000        6.65040
C          4.47190        4.71680        7.19220
C          3.80590        5.64340        6.37540
C          3.35090        6.93810        6.89800
C          4.22490        7.77560        7.58440
C          3.81010        9.00060        8.07110
C          2.50180        9.43280        7.88730
S          1.82550       10.94960        8.47470
C          3.28030       11.92450        8.99210
C          4.09400       12.42000        7.81140
C          1.63520        8.57970        7.20030
C          2.03670        7.35930        6.70710
F          0.35580        8.96070        7.01730
C          3.61400        5.28050        5.05060
S          2.81280        6.24180        3.83110
C          4.75060        4.81390        8.58890
C          5.42570        3.74960        9.06600
S          5.76790        2.55000        7.86550
H         -0.37700      -12.01550        7.83660
H          1.06470       -9.97070        7.11190
H          0.59500       -5.89220        5.33470
H          2.74940       -4.82330        5.68840
H          4.59770       -3.72400        5.75120
H          6.27760       -3.81180        5.18690
H          4.74640       -3.15820        3.32060
H          5.55950       -4.69550        3.00430
H          3.86550       -4.68220        3.50720
H          2.52170       -9.70940        5.08160
H         -4.70700       -8.62400        3.53110
H         -6.68640       -9.60220        2.51070
H         -8.91790      -11.46960        0.20580
H         -8.40180      -10.26960        1.39750
H         -7.78380       -9.57140       -0.94190
H         -6.32670       -9.83570        0.02090
H         -6.84880      -11.06220       -1.13200
H         -2.73390      -12.42230        3.36890
H         -3.22290       -8.39000        1.62760
H         -0.51100       -4.56810        0.63100
H          0.96300       -4.21280       -1.26820
H          2.82290       -2.86120       -0.39420
H          2.73780       -1.35130        2.20450
H          3.80740        0.04840        2.44620
H          1.81300        1.57370        2.22210
H          1.66790        0.48360        3.60840
H          0.76120        0.16040        2.12600
H         -1.48450       -0.69950       -1.42330
H         -6.18500       -4.32750       -3.23630
H         -8.14210       -5.74810       -3.70020
H         -7.69410      -10.71740       -3.76680
H         -7.30960       -9.85920       -5.28120
H         -9.70120      -10.03630       -5.97960
H        -10.08680      -10.87110       -4.47270
H         -9.03090      -11.64210       -5.66220
H         -3.75900       -7.84410       -2.95130
H         -4.53870       -4.18360       -5.22040
H         -6.12790       -3.16470       -5.84940
H         -7.87040       -2.91700       -7.67110
H         -1.02220       -0.56710       -5.92770
H         -0.26430        0.99610       -7.77090
H         -5.20450       -0.45900      -10.94300
H         -4.86310        1.89390      -11.41670
H         -2.72570        3.40840      -11.76880
H         -0.97230        5.18200      -11.25650
H         -6.12090        1.02160       -7.90410
H         -5.94310        1.41590       -5.39280
H         -2.11820        3.86790       -5.31100
H         -1.06560        6.18690       -7.01450
H          0.44760        3.69710       -4.90620
H          3.96650        2.88990       -2.04610
H          4.57340        0.62360       -2.61520
H          4.53930       -1.46690       -2.06270
H          4.46500       -3.05970       -2.84200
H          5.65680       -2.20640       -4.83080
H          6.63300       -1.91810       -3.38660
H          5.73930       -0.59000       -4.13610
H         -0.04550        2.17000       -3.36880
H          2.68520        8.62830       -0.56550
H          2.25550       10.93880        0.04330
H          1.92130       12.89100        0.82150
H          1.02190       14.38290        0.51740
H          2.25280       12.64890       -1.69210
H          2.94180       14.16200       -1.08960
H          1.38220       14.16490       -1.92190
H         -1.42400        8.14230       -1.67380
H          1.80830        7.11530        1.21360
H          3.98810        3.05530        2.55190
H          4.58940        0.60220        6.21280
H          5.66850       -1.38960        5.27270
H          8.19770       -2.69980        1.16970
H          8.37300       -0.93620        1.18060
H          6.61460       -1.68890       -0.45580
H          5.72120       -2.45080        0.86620
H          5.90220       -0.69400        0.81130
H          6.38770        2.97160        3.13210
H          5.25220        7.47330        7.72330
H          4.51950        9.61440        8.60200
H          3.87090       11.32970        9.68770
H          2.84300       12.76060        9.53800
H          3.47530       13.03650        7.16370
H          4.93270       13.01740        8.16420
H          4.48040       11.58910        7.22500
H          1.31890        6.73930        6.19410
H          4.43700        5.64340        9.19620
H          5.75310        3.57190       10.07170
