
  xtb     03052207433D
 energy: -414.260046460678 gnorm: 0.000347099910 xtb: 6.4.1 (unknown)
236259  0     0  0            999 V2000
   -3.8618   -0.9182   13.8694 C   0  0  0  0  0  0  0  0  0  0  0  0
   -2.9349   -0.3486   13.0735 C   0  0  0  0  0  0  0  0  0  0  0  0
   -3.0948   -0.6959   11.6987 C   0  0  0  0  0  0  0  0  0  0  0  0
   -2.3089   -0.3002   10.6068 C   0  0  0  0  0  0  0  0  0  0  0  0
   -1.1121    0.5338   10.7763 C   0  0  0  0  0  0  0  0  0  0  0  0
   -0.1127    0.1820   11.6825 C   0  0  0  0  0  0  0  0  0  0  0  0
    1.0221    0.9529   11.8091 C   0  0  0  0  0  0  0  0  0  0  0  0
    1.2032    2.1112   11.0529 C   0  0  0  0  0  0  0  0  0  0  0  0
    2.6832    3.0299   11.3323 S   0  0  0  0  0  0  0  0  0  0  0  0
    3.0410    3.8086    9.7063 C   0  0  0  0  0  0  0  0  0  0  0  0
    4.5220    4.1232    9.6313 C   0  0  0  0  0  0  0  0  0  0  0  0
    0.1829    2.4658   10.1751 C   0  0  0  0  0  0  0  0  0  0  0  0
    0.2565    3.6021    9.4459 F   0  0  0  0  0  0  0  0  0  0  0  0
   -0.9472    1.6890   10.0205 C   0  0  0  0  0  0  0  0  0  0  0  0
   -2.7098   -0.7480    9.3570 C   0  0  0  0  0  0  0  0  0  0  0  0
   -3.8312   -1.5901    9.1568 C   0  0  0  0  0  0  0  0  0  0  0  0
   -4.5967   -2.0149   10.2537 C   0  0  0  0  0  0  0  0  0  0  0  0
   -5.7187   -2.9468   10.0897 C   0  0  0  0  0  0  0  0  0  0  0  0
   -5.5515   -4.1391    9.3906 C   0  0  0  0  0  0  0  0  0  0  0  0
   -6.5896   -5.0397    9.2526 C   0  0  0  0  0  0  0  0  0  0  0  0
   -7.8355   -4.7803    9.8119 C   0  0  0  0  0  0  0  0  0  0  0  0
   -9.2459   -5.8308    9.6940 S   0  0  0  0  0  0  0  0  0  0  0  0
   -8.5516   -7.4541    9.2250 C   0  0  0  0  0  0  0  0  0  0  0  0
   -7.7332   -8.0744   10.3412 C   0  0  0  0  0  0  0  0  0  0  0  0
   -7.9925   -3.5753   10.4990 C   0  0  0  0  0  0  0  0  0  0  0  0
   -6.9651   -2.6711   10.6473 C   0  0  0  0  0  0  0  0  0  0  0  0
   -9.1920   -3.2825   11.0381 F   0  0  0  0  0  0  0  0  0  0  0  0
   -4.2165   -1.5363   11.5002 C   0  0  0  0  0  0  0  0  0  0  0  0
   -4.9974   -1.9069   13.0164 S   0  0  0  0  0  0  0  0  0  0  0  0
   -4.0316   -1.8835    7.7826 C   0  0  0  0  0  0  0  0  0  0  0  0
   -3.0909   -1.3357    6.9642 C   0  0  0  0  0  0  0  0  0  0  0  0
   -1.8975   -0.4051    7.8514 S   0  0  0  0  0  0  0  0  0  0  0  0
   -2.9931   -1.4434    5.5453 C   0  0  0  0  0  0  0  0  0  0  0  0
   -1.9882   -0.9866    4.7470 C   0  0  0  0  0  0  0  0  0  0  0  0
   -2.1738   -1.2733    3.3700 C   0  0  0  0  0  0  0  0  0  0  0  0
   -1.3328   -0.9541    2.2885 C   0  0  0  0  0  0  0  0  0  0  0  0
   -0.0089   -0.3559    2.4864 C   0  0  0  0  0  0  0  0  0  0  0  0
    0.8252   -0.7743    3.5249 C   0  0  0  0  0  0  0  0  0  0  0  0
    2.0859   -0.2409    3.6814 C   0  0  0  0  0  0  0  0  0  0  0  0
    2.5860    0.7131    2.7981 C   0  0  0  0  0  0  0  0  0  0  0  0
    4.2350    1.2957    3.0688 S   0  0  0  0  0  0  0  0  0  0  0  0
    4.9445    1.4315    1.3802 C   0  0  0  0  0  0  0  0  0  0  0  0
    5.1532    2.8654    0.9379 C   0  0  0  0  0  0  0  0  0  0  0  0
    1.7350    1.1511    1.7901 C   0  0  0  0  0  0  0  0  0  0  0  0
    2.1257    2.1183    0.9307 F   0  0  0  0  0  0  0  0  0  0  0  0
    0.4660    0.6351    1.6305 C   0  0  0  0  0  0  0  0  0  0  0  0
   -1.8268   -1.2487    1.0221 C   0  0  0  0  0  0  0  0  0  0  0  0
   -3.1016   -1.8214    0.7886 C   0  0  0  0  0  0  0  0  0  0  0  0
   -3.9120   -2.1886    1.8732 C   0  0  0  0  0  0  0  0  0  0  0  0
   -5.2383   -2.7885    1.6837 C   0  0  0  0  0  0  0  0  0  0  0  0
   -5.5917   -3.9631    2.3393 C   0  0  0  0  0  0  0  0  0  0  0  0
   -6.8442   -4.5243    2.1788 C   0  0  0  0  0  0  0  0  0  0  0  0
   -7.7906   -3.9286    1.3535 C   0  0  0  0  0  0  0  0  0  0  0  0
   -9.4272   -4.5133    1.0673 S   0  0  0  0  0  0  0  0  0  0  0  0
   -9.4562   -6.1746    1.8237 C   0  0  0  0  0  0  0  0  0  0  0  0
   -8.6835   -7.1948    1.0088 C   0  0  0  0  0  0  0  0  0  0  0  0
   -7.4252   -2.7436    0.7109 C   0  0  0  0  0  0  0  0  0  0  0  0
   -6.1817   -2.1743    0.8616 C   0  0  0  0  0  0  0  0  0  0  0  0
   -8.3234   -2.1295   -0.0862 F   0  0  0  0  0  0  0  0  0  0  0  0
   -3.4110   -1.9248    3.1384 C   0  0  0  0  0  0  0  0  0  0  0  0
   -4.2545   -2.2459    4.6316 S   0  0  0  0  0  0  0  0  0  0  0  0
   -3.3818   -1.9669   -0.6000 C   0  0  0  0  0  0  0  0  0  0  0  0
   -2.3641   -1.5626   -1.3986 C   0  0  0  0  0  0  0  0  0  0  0  0
   -0.9893   -0.9733   -0.4783 S   0  0  0  0  0  0  0  0  0  0  0  0
   -2.2690   -1.3840   -2.8243 C   0  0  0  0  0  0  0  0  0  0  0  0
   -1.1922   -1.6678   -3.6015 C   0  0  0  0  0  0  0  0  0  0  0  0
   -1.2192   -1.0433   -4.8766 C   0  0  0  0  0  0  0  0  0  0  0  0
   -0.2244   -1.0455   -5.8703 C   0  0  0  0  0  0  0  0  0  0  0  0
    0.9917   -1.8628   -5.8007 C   0  0  0  0  0  0  0  0  0  0  0  0
    1.4453   -2.5388   -6.9346 C   0  0  0  0  0  0  0  0  0  0  0  0
    2.6338   -3.2344   -6.9140 C   0  0  0  0  0  0  0  0  0  0  0  0
    3.4149   -3.2999   -5.7616 C   0  0  0  0  0  0  0  0  0  0  0  0
    4.9373   -4.1925   -5.8582 S   0  0  0  0  0  0  0  0  0  0  0  0
    6.1024   -3.2340   -4.8066 C   0  0  0  0  0  0  0  0  0  0  0  0
    6.4522   -3.9622   -3.5241 C   0  0  0  0  0  0  0  0  0  0  0  0
    2.9207   -2.6768   -4.6230 C   0  0  0  0  0  0  0  0  0  0  0  0
    3.5936   -2.7443   -3.4502 F   0  0  0  0  0  0  0  0  0  0  0  0
    1.7443   -1.9575   -4.6371 C   0  0  0  0  0  0  0  0  0  0  0  0
   -0.4159   -0.1664   -6.9273 C   0  0  0  0  0  0  0  0  0  0  0  0
   -1.5758    0.6279   -7.0875 C   0  0  0  0  0  0  0  0  0  0  0  0
   -2.6295    0.5261   -6.1620 C   0  0  0  0  0  0  0  0  0  0  0  0
   -3.8785    1.2664   -6.3680 C   0  0  0  0  0  0  0  0  0  0  0  0
   -4.5299    1.2050   -7.6005 C   0  0  0  0  0  0  0  0  0  0  0  0
   -5.7216    1.8665   -7.8003 C   0  0  0  0  0  0  0  0  0  0  0  0
   -6.3042    2.6323   -6.7914 C   0  0  0  0  0  0  0  0  0  0  0  0
   -7.8142    3.4674   -7.1766 S   0  0  0  0  0  0  0  0  0  0  0  0
   -8.8109    3.3167   -5.6478 C   0  0  0  0  0  0  0  0  0  0  0  0
   -9.0136    1.8711   -5.2417 C   0  0  0  0  0  0  0  0  0  0  0  0
   -5.6226    2.7180   -5.5813 C   0  0  0  0  0  0  0  0  0  0  0  0
   -4.4427    2.0379   -5.3579 C   0  0  0  0  0  0  0  0  0  0  0  0
   -6.0920    3.4880   -4.5759 F   0  0  0  0  0  0  0  0  0  0  0  0
   -2.3972   -0.2719   -5.0506 C   0  0  0  0  0  0  0  0  0  0  0  0
   -3.4567   -0.4098   -3.6682 S   0  0  0  0  0  0  0  0  0  0  0  0
   -1.4345    1.5865   -8.1245 C   0  0  0  0  0  0  0  0  0  0  0  0
   -0.2075    1.5617   -8.7258 C   0  0  0  0  0  0  0  0  0  0  0  0
    0.7956    0.2538   -8.1085 S   0  0  0  0  0  0  0  0  0  0  0  0
    0.4183    2.5543   -9.5343 C   0  0  0  0  0  0  0  0  0  0  0  0
    2.1360    2.6669   -9.4053 S   0  0  0  0  0  0  0  0  0  0  0  0
    2.1925    4.2580  -10.0750 C   0  0  0  0  0  0  0  0  0  0  0  0
    0.9265    4.6187  -10.5384 C   0  0  0  0  0  0  0  0  0  0  0  0
   -0.0956    3.6588  -10.2212 C   0  0  0  0  0  0  0  0  0  0  0  0
   -1.4300    3.8992  -10.6097 C   0  0  0  0  0  0  0  0  0  0  0  0
   -1.7488    5.0546  -11.2618 C   0  0  0  0  0  0  0  0  0  0  0  0
   -0.7668    6.0215  -11.5553 C   0  0  0  0  0  0  0  0  0  0  0  0
    0.5298    5.8017  -11.1998 C   0  0  0  0  0  0  0  0  0  0  0  0
    1.4670    6.7249  -11.5073 F   0  0  0  0  0  0  0  0  0  0  0  0
    3.3960    5.0437   -9.9968 C   0  0  0  0  0  0  0  0  0  0  0  0
    4.2688    4.9668   -8.9745 C   0  0  0  0  0  0  0  0  0  0  0  0
    4.0075    4.1368   -7.8082 C   0  0  0  0  0  0  0  0  0  0  0  0
    2.6026    4.4243   -6.8455 S   0  0  0  0  0  0  0  0  0  0  0  0
    2.7204    2.9000   -6.0119 C   0  0  0  0  0  0  0  0  0  0  0  0
    3.8415    2.2052   -6.4707 C   0  0  0  0  0  0  0  0  0  0  0  0
    4.6062    2.9383   -7.4459 C   0  0  0  0  0  0  0  0  0  0  0  0
    5.7792    2.3858   -8.0137 C   0  0  0  0  0  0  0  0  0  0  0  0
    6.1682    1.1290   -7.6701 C   0  0  0  0  0  0  0  0  0  0  0  0
    5.3700    0.3462   -6.8101 C   0  0  0  0  0  0  0  0  0  0  0  0
    4.2402    0.8648   -6.2560 C   0  0  0  0  0  0  0  0  0  0  0  0
    3.4501    0.0509   -5.5267 F   0  0  0  0  0  0  0  0  0  0  0  0
    1.6301    2.6215   -5.1218 C   0  0  0  0  0  0  0  0  0  0  0  0
    1.5361    1.9468   -3.9544 C   0  0  0  0  0  0  0  0  0  0  0  0
    2.5539    1.3241   -3.1731 C   0  0  0  0  0  0  0  0  0  0  0  0
    3.9106    1.4104   -3.2590 C   0  0  0  0  0  0  0  0  0  0  0  0
    4.5972    0.5183   -2.4016 C   0  0  0  0  0  0  0  0  0  0  0  0
    5.9789    0.2747   -2.3675 C   0  0  0  0  0  0  0  0  0  0  0  0
    6.8626    0.9942   -3.2932 C   0  0  0  0  0  0  0  0  0  0  0  0
    6.8480    2.3830   -3.3776 C   0  0  0  0  0  0  0  0  0  0  0  0
    7.5848    3.0529   -4.3355 C   0  0  0  0  0  0  0  0  0  0  0  0
    8.3585    2.3537   -5.2538 C   0  0  0  0  0  0  0  0  0  0  0  0
    9.3178    3.0595   -6.5499 S   0  0  0  0  0  0  0  0  0  0  0  0
    9.0547    4.8592   -6.3912 C   0  0  0  0  0  0  0  0  0  0  0  0
    7.7398    5.3127   -6.9979 C   0  0  0  0  0  0  0  0  0  0  0  0
    8.3874    0.9628   -5.1377 C   0  0  0  0  0  0  0  0  0  0  0  0
    9.1311    0.2508   -6.0093 F   0  0  0  0  0  0  0  0  0  0  0  0
    7.6684    0.2847   -4.1810 C   0  0  0  0  0  0  0  0  0  0  0  0
    6.4090   -0.7273   -1.5135 C   0  0  0  0  0  0  0  0  0  0  0  0
    5.5305   -1.4862   -0.7015 C   0  0  0  0  0  0  0  0  0  0  0  0
    4.1462   -1.2517   -0.7430 C   0  0  0  0  0  0  0  0  0  0  0  0
    3.2040   -2.0316    0.0710 C   0  0  0  0  0  0  0  0  0  0  0  0
    2.0557   -2.5814   -0.4955 C   0  0  0  0  0  0  0  0  0  0  0  0
    1.1543   -3.2845    0.2728 C   0  0  0  0  0  0  0  0  0  0  0  0
    1.3545   -3.4687    1.6378 C   0  0  0  0  0  0  0  0  0  0  0  0
    0.0493   -4.2501    2.5434 S   0  0  0  0  0  0  0  0  0  0  0  0
    0.9116   -5.3370    3.7407 C   0  0  0  0  0  0  0  0  0  0  0  0
    1.8177   -6.3358    3.0503 C   0  0  0  0  0  0  0  0  0  0  0  0
    2.5192   -2.9438    2.1863 C   0  0  0  0  0  0  0  0  0  0  0  0
    3.4308   -2.2373    1.4284 C   0  0  0  0  0  0  0  0  0  0  0  0
    2.8021   -3.1095    3.4985 F   0  0  0  0  0  0  0  0  0  0  0  0
    3.7123   -0.2525   -1.6067 C   0  0  0  0  0  0  0  0  0  0  0  0
    2.0607    0.2182   -1.8974 S   0  0  0  0  0  0  0  0  0  0  0  0
    6.2413   -2.4733    0.0457 C   0  0  0  0  0  0  0  0  0  0  0  0
    7.5730   -2.4354   -0.1589 C   0  0  0  0  0  0  0  0  0  0  0  0
    8.0693   -1.2152   -1.2830 S   0  0  0  0  0  0  0  0  0  0  0  0
   -3.9683   -0.8204   14.9321 H   0  0  0  0  0  0  0  0  0  0  0  0
   -2.1640    0.3104   13.4296 H   0  0  0  0  0  0  0  0  0  0  0  0
   -0.2153   -0.7202   12.2662 H   0  0  0  0  0  0  0  0  0  0  0  0
    1.8011    0.6697   12.5000 H   0  0  0  0  0  0  0  0  0  0  0  0
    2.4414    4.7133    9.6181 H   0  0  0  0  0  0  0  0  0  0  0  0
    2.7508    3.0955    8.9364 H   0  0  0  0  0  0  0  0  0  0  0  0
    4.8072    4.8109   10.4243 H   0  0  0  0  0  0  0  0  0  0  0  0
    4.7496    4.5825    8.6718 H   0  0  0  0  0  0  0  0  0  0  0  0
    5.1117    3.2150    9.7335 H   0  0  0  0  0  0  0  0  0  0  0  0
   -1.7070    2.0165    9.3283 H   0  0  0  0  0  0  0  0  0  0  0  0
   -4.5873   -4.3762    8.9664 H   0  0  0  0  0  0  0  0  0  0  0  0
   -6.4185   -5.9489    8.6992 H   0  0  0  0  0  0  0  0  0  0  0  0
   -7.9820   -7.3407    8.3034 H   0  0  0  0  0  0  0  0  0  0  0  0
   -9.4361   -8.0548    9.0130 H   0  0  0  0  0  0  0  0  0  0  0  0
   -8.3440   -8.1897   11.2333 H   0  0  0  0  0  0  0  0  0  0  0  0
   -7.3733   -9.0553   10.0362 H   0  0  0  0  0  0  0  0  0  0  0  0
   -6.8768   -7.4514   10.5909 H   0  0  0  0  0  0  0  0  0  0  0  0
   -7.1484   -1.7529   11.1821 H   0  0  0  0  0  0  0  0  0  0  0  0
   -4.8537   -2.4687    7.4104 H   0  0  0  0  0  0  0  0  0  0  0  0
   -1.1552   -0.4322    5.1401 H   0  0  0  0  0  0  0  0  0  0  0  0
    0.5022   -1.5620    4.1869 H   0  0  0  0  0  0  0  0  0  0  0  0
    2.7239   -0.5811    4.4822 H   0  0  0  0  0  0  0  0  0  0  0  0
    5.8969    0.9024    1.4361 H   0  0  0  0  0  0  0  0  0  0  0  0
    4.2821    0.8939    0.7071 H   0  0  0  0  0  0  0  0  0  0  0  0
    5.7943    3.3920    1.6412 H   0  0  0  0  0  0  0  0  0  0  0  0
    5.6283    2.8720   -0.0417 H   0  0  0  0  0  0  0  0  0  0  0  0
    4.2042    3.3898    0.8682 H   0  0  0  0  0  0  0  0  0  0  0  0
   -0.1500    1.0466    0.8475 H   0  0  0  0  0  0  0  0  0  0  0  0
   -4.8702   -4.4563    2.9725 H   0  0  0  0  0  0  0  0  0  0  0  0
   -7.0764   -5.4320    2.7111 H   0  0  0  0  0  0  0  0  0  0  0  0
   -9.0963   -6.0962    2.8487 H   0  0  0  0  0  0  0  0  0  0  0  0
  -10.5171   -6.4238    1.8480 H   0  0  0  0  0  0  0  0  0  0  0  0
   -8.7532   -8.1742    1.4786 H   0  0  0  0  0  0  0  0  0  0  0  0
   -9.0959   -7.2610    0.0048 H   0  0  0  0  0  0  0  0  0  0  0  0
   -7.6338   -6.9205    0.9292 H   0  0  0  0  0  0  0  0  0  0  0  0
   -5.9643   -1.2445    0.3597 H   0  0  0  0  0  0  0  0  0  0  0  0
   -4.2999   -2.3744   -0.9826 H   0  0  0  0  0  0  0  0  0  0  0  0
   -0.3956   -2.2972   -3.2531 H   0  0  0  0  0  0  0  0  0  0  0  0
    0.8625   -2.5149   -7.8427 H   0  0  0  0  0  0  0  0  0  0  0  0
    2.9897   -3.7337   -7.8016 H   0  0  0  0  0  0  0  0  0  0  0  0
    5.6516   -2.2627   -4.6129 H   0  0  0  0  0  0  0  0  0  0  0  0
    6.9875   -3.1053   -5.4316 H   0  0  0  0  0  0  0  0  0  0  0  0
    7.2305   -3.4182   -2.9926 H   0  0  0  0  0  0  0  0  0  0  0  0
    6.8199   -4.9616   -3.7461 H   0  0  0  0  0  0  0  0  0  0  0  0
    5.5834   -4.0435   -2.8765 H   0  0  0  0  0  0  0  0  0  0  0  0
    1.4587   -1.4222   -3.7479 H   0  0  0  0  0  0  0  0  0  0  0  0
   -4.1098    0.6050   -8.3935 H   0  0  0  0  0  0  0  0  0  0  0  0
   -6.2323    1.7999   -8.7483 H   0  0  0  0  0  0  0  0  0  0  0  0
   -9.7561    3.7851   -5.9224 H   0  0  0  0  0  0  0  0  0  0  0  0
   -8.3416    3.9009   -4.8595 H   0  0  0  0  0  0  0  0  0  0  0  0
   -9.4579    1.3035   -6.0569 H   0  0  0  0  0  0  0  0  0  0  0  0
   -8.0675    1.4057   -4.9713 H   0  0  0  0  0  0  0  0  0  0  0  0
   -9.6762    1.8232   -4.3801 H   0  0  0  0  0  0  0  0  0  0  0  0
   -3.9580    2.1507   -4.4012 H   0  0  0  0  0  0  0  0  0  0  0  0
   -2.1768    2.3374   -8.3230 H   0  0  0  0  0  0  0  0  0  0  0  0
   -2.1819    3.1532  -10.4096 H   0  0  0  0  0  0  0  0  0  0  0  0
   -2.7659    5.2419  -11.5686 H   0  0  0  0  0  0  0  0  0  0  0  0
   -1.0314    6.9310  -12.0703 H   0  0  0  0  0  0  0  0  0  0  0  0
    3.5754    5.7450  -10.7994 H   0  0  0  0  0  0  0  0  0  0  0  0
    5.1842    5.5416   -9.0008 H   0  0  0  0  0  0  0  0  0  0  0  0
    6.3389    2.9711   -8.7254 H   0  0  0  0  0  0  0  0  0  0  0  0
    7.0675    0.6993   -8.0817 H   0  0  0  0  0  0  0  0  0  0  0  0
    5.6276   -0.6831   -6.6197 H   0  0  0  0  0  0  0  0  0  0  0  0
    0.7104    3.0956   -5.4505 H   0  0  0  0  0  0  0  0  0  0  0  0
    0.5414    1.8542   -3.5354 H   0  0  0  0  0  0  0  0  0  0  0  0
    4.4115    2.0657   -3.9461 H   0  0  0  0  0  0  0  0  0  0  0  0
    6.2573    2.9534   -2.6760 H   0  0  0  0  0  0  0  0  0  0  0  0
    7.5425    4.1294   -4.3601 H   0  0  0  0  0  0  0  0  0  0  0  0
    9.8964    5.2918   -6.9323 H   0  0  0  0  0  0  0  0  0  0  0  0
    9.1462    5.1271   -5.3398 H   0  0  0  0  0  0  0  0  0  0  0  0
    7.6219    6.3868   -6.8657 H   0  0  0  0  0  0  0  0  0  0  0  0
    6.8955    4.8073   -6.5339 H   0  0  0  0  0  0  0  0  0  0  0  0
    7.7280    5.0900   -8.0622 H   0  0  0  0  0  0  0  0  0  0  0  0
    7.7192   -0.7919   -4.1496 H   0  0  0  0  0  0  0  0  0  0  0  0
    1.8834   -2.4794   -1.5532 H   0  0  0  0  0  0  0  0  0  0  0  0
    0.2674   -3.7068   -0.1737 H   0  0  0  0  0  0  0  0  0  0  0  0
    0.0927   -5.8383    4.2568 H   0  0  0  0  0  0  0  0  0  0  0  0
    1.4544   -4.7194    4.4527 H   0  0  0  0  0  0  0  0  0  0  0  0
    2.6281   -5.8280    2.5309 H   0  0  0  0  0  0  0  0  0  0  0  0
    1.2576   -6.9231    2.3255 H   0  0  0  0  0  0  0  0  0  0  0  0
    2.2506   -7.0087    3.7877 H   0  0  0  0  0  0  0  0  0  0  0  0
    4.2944   -1.8200    1.9230 H   0  0  0  0  0  0  0  0  0  0  0  0
    5.7639   -3.1882    0.6900 H   0  0  0  0  0  0  0  0  0  0  0  0
    8.3251   -3.0627    0.2784 H   0  0  0  0  0  0  0  0  0  0  0  0
  1  2  2  0  0  0  0
  2  3  1  0  0  0  0
  3  4  2  0  0  0  0
  4  5  1  0  0  0  0
  5  6  2  0  0  0  0
  6  7  1  0  0  0  0
  7  8  2  0  0  0  0
  8  9  1  0  0  0  0
  9 10  1  0  0  0  0
 10 11  1  0  0  0  0
  8 12  1  0  0  0  0
 12 13  1  0  0  0  0
 12 14  2  0  0  0  0
  4 15  1  0  0  0  0
 15 16  2  0  0  0  0
 16 17  1  0  0  0  0
 17 18  1  0  0  0  0
 18 19  2  0  0  0  0
 19 20  1  0  0  0  0
 20 21  2  0  0  0  0
 21 22  1  0  0  0  0
 22 23  1  0  0  0  0
 23 24  1  0  0  0  0
 21 25  1  0  0  0  0
 25 26  2  0  0  0  0
 25 27  1  0  0  0  0
 17 28  2  0  0  0  0
 28 29  1  0  0  0  0
 16 30  1  0  0  0  0
 30 31  2  0  0  0  0
 31 32  1  0  0  0  0
 31 33  1  0  0  0  0
 33 34  2  0  0  0  0
 34 35  1  0  0  0  0
 35 36  2  0  0  0  0
 36 37  1  0  0  0  0
 37 38  2  0  0  0  0
 38 39  1  0  0  0  0
 39 40  2  0  0  0  0
 40 41  1  0  0  0  0
 41 42  1  0  0  0  0
 42 43  1  0  0  0  0
 40 44  1  0  0  0  0
 44 45  1  0  0  0  0
 44 46  2  0  0  0  0
 36 47  1  0  0  0  0
 47 48  2  0  0  0  0
 48 49  1  0  0  0  0
 49 50  1  0  0  0  0
 50 51  2  0  0  0  0
 51 52  1  0  0  0  0
 52 53  2  0  0  0  0
 53 54  1  0  0  0  0
 54 55  1  0  0  0  0
 55 56  1  0  0  0  0
 53 57  1  0  0  0  0
 57 58  2  0  0  0  0
 57 59  1  0  0  0  0
 49 60  2  0  0  0  0
 60 61  1  0  0  0  0
 48 62  1  0  0  0  0
 62 63  2  0  0  0  0
 63 64  1  0  0  0  0
 63 65  1  0  0  0  0
 65 66  2  0  0  0  0
 66 67  1  0  0  0  0
 67 68  2  0  0  0  0
 68 69  1  0  0  0  0
 69 70  2  0  0  0  0
 70 71  1  0  0  0  0
 71 72  2  0  0  0  0
 72 73  1  0  0  0  0
 73 74  1  0  0  0  0
 74 75  1  0  0  0  0
 72 76  1  0  0  0  0
 76 77  1  0  0  0  0
 76 78  2  0  0  0  0
 68 79  1  0  0  0  0
 79 80  2  0  0  0  0
 80 81  1  0  0  0  0
 81 82  1  0  0  0  0
 82 83  2  0  0  0  0
 83 84  1  0  0  0  0
 84 85  2  0  0  0  0
 85 86  1  0  0  0  0
 86 87  1  0  0  0  0
 87 88  1  0  0  0  0
 85 89  1  0  0  0  0
 89 90  2  0  0  0  0
 89 91  1  0  0  0  0
 81 92  2  0  0  0  0
 92 93  1  0  0  0  0
 80 94  1  0  0  0  0
 94 95  2  0  0  0  0
 95 96  1  0  0  0  0
 95 97  1  0  0  0  0
 97 98  1  0  0  0  0
 98 99  1  0  0  0  0
 99100  2  0  0  0  0
100101  1  0  0  0  0
101102  1  0  0  0  0
102103  2  0  0  0  0
103104  1  0  0  0  0
104105  2  0  0  0  0
105106  1  0  0  0  0
 99107  1  0  0  0  0
107108  2  0  0  0  0
108109  1  0  0  0  0
109110  1  0  0  0  0
110111  1  0  0  0  0
111112  2  0  0  0  0
112113  1  0  0  0  0
113114  1  0  0  0  0
114115  2  0  0  0  0
115116  1  0  0  0  0
116117  2  0  0  0  0
117118  1  0  0  0  0
111119  1  0  0  0  0
119120  2  0  0  0  0
120121  1  0  0  0  0
121122  2  0  0  0  0
122123  1  0  0  0  0
123124  2  0  0  0  0
124125  1  0  0  0  0
125126  2  0  0  0  0
126127  1  0  0  0  0
127128  2  0  0  0  0
128129  1  0  0  0  0
129130  1  0  0  0  0
130131  1  0  0  0  0
128132  1  0  0  0  0
132133  1  0  0  0  0
132134  2  0  0  0  0
124135  1  0  0  0  0
135136  2  0  0  0  0
136137  1  0  0  0  0
137138  1  0  0  0  0
138139  2  0  0  0  0
139140  1  0  0  0  0
140141  2  0  0  0  0
141142  1  0  0  0  0
142143  1  0  0  0  0
143144  1  0  0  0  0
141145  1  0  0  0  0
145146  2  0  0  0  0
145147  1  0  0  0  0
137148  2  0  0  0  0
148149  1  0  0  0  0
136150  1  0  0  0  0
150151  2  0  0  0  0
151152  1  0  0  0  0
 29  1  1  0  0  0  0
 61 33  1  0  0  0  0
 93 65  1  0  0  0  0
101 97  2  0  0  0  0
113109  2  0  0  0  0
149121  1  0  0  0  0
 28  3  1  0  0  0  0
 60 35  1  0  0  0  0
 92 67  1  0  0  0  0
105100  1  0  0  0  0
117112  1  0  0  0  0
148123  1  0  0  0  0
 14  5  1  0  0  0  0
 32 15  1  0  0  0  0
 46 37  1  0  0  0  0
 64 47  1  0  0  0  0
 78 69  1  0  0  0  0
 96 79  1  0  0  0  0
134125  1  0  0  0  0
152135  1  0  0  0  0
 26 18  1  0  0  0  0
 58 50  1  0  0  0  0
 90 82  1  0  0  0  0
146138  1  0  0  0  0
  1153  1  0  0  0  0
  2154  1  0  0  0  0
  6155  1  0  0  0  0
  7156  1  0  0  0  0
 10157  1  0  0  0  0
 10158  1  0  0  0  0
 11159  1  0  0  0  0
 11160  1  0  0  0  0
 11161  1  0  0  0  0
 14162  1  0  0  0  0
 19163  1  0  0  0  0
 20164  1  0  0  0  0
 23165  1  0  0  0  0
 23166  1  0  0  0  0
 24167  1  0  0  0  0
 24168  1  0  0  0  0
 24169  1  0  0  0  0
 26170  1  0  0  0  0
 30171  1  0  0  0  0
 34172  1  0  0  0  0
 38173  1  0  0  0  0
 39174  1  0  0  0  0
 42175  1  0  0  0  0
 42176  1  0  0  0  0
 43177  1  0  0  0  0
 43178  1  0  0  0  0
 43179  1  0  0  0  0
 46180  1  0  0  0  0
 51181  1  0  0  0  0
 52182  1  0  0  0  0
 55183  1  0  0  0  0
 55184  1  0  0  0  0
 56185  1  0  0  0  0
 56186  1  0  0  0  0
 56187  1  0  0  0  0
 58188  1  0  0  0  0
 62189  1  0  0  0  0
 66190  1  0  0  0  0
 70191  1  0  0  0  0
 71192  1  0  0  0  0
 74193  1  0  0  0  0
 74194  1  0  0  0  0
 75195  1  0  0  0  0
 75196  1  0  0  0  0
 75197  1  0  0  0  0
 78198  1  0  0  0  0
 83199  1  0  0  0  0
 84200  1  0  0  0  0
 87201  1  0  0  0  0
 87202  1  0  0  0  0
 88203  1  0  0  0  0
 88204  1  0  0  0  0
 88205  1  0  0  0  0
 90206  1  0  0  0  0
 94207  1  0  0  0  0
102208  1  0  0  0  0
103209  1  0  0  0  0
104210  1  0  0  0  0
107211  1  0  0  0  0
108212  1  0  0  0  0
114213  1  0  0  0  0
115214  1  0  0  0  0
116215  1  0  0  0  0
119216  1  0  0  0  0
120217  1  0  0  0  0
122218  1  0  0  0  0
126219  1  0  0  0  0
127220  1  0  0  0  0
130221  1  0  0  0  0
130222  1  0  0  0  0
131223  1  0  0  0  0
131224  1  0  0  0  0
131225  1  0  0  0  0
134226  1  0  0  0  0
139227  1  0  0  0  0
140228  1  0  0  0  0
143229  1  0  0  0  0
143230  1  0  0  0  0
144231  1  0  0  0  0
144232  1  0  0  0  0
144233  1  0  0  0  0
146234  1  0  0  0  0
150235  1  0  0  0  0
151236  1  0  0  0  0
M  END
