266

C         -2.77720       -3.36540       12.55960
C         -2.07020       -2.62900       11.67950
C         -2.63360       -2.64100       10.36900
C         -2.16860       -1.99120        9.22000
C         -0.98990       -1.11190        9.21960
C          0.05940       -1.33150        8.32970
C          1.12140       -0.45750        8.27190
C          1.16980        0.68930        9.06500
S          2.51520        1.79340        8.75880
C          2.77760        2.67140       10.35060
C          4.17200        3.26580       10.34560
C          0.12020        0.88870        9.95650
F          0.07770        1.98190       10.75360
C         -0.93260       -0.00120       10.05400
C         -2.90160       -2.17750        8.05760
C         -4.09080       -2.94510        7.99870
C         -4.55400       -3.60120        9.15040
C         -5.78350       -4.40290        9.13570
C         -5.79130       -5.70550        9.62410
C         -6.94190       -6.46980        9.60810
C         -8.13030       -5.95710        9.10130
S         -9.67050       -6.80870        9.03270
C         -9.23680       -8.55080        9.36510
C         -8.49490       -9.19140        8.20720
C         -8.11180       -4.64240        8.63050
C         -6.97210       -3.87110        8.63860
F         -9.25060       -4.10400        8.14930
C         -3.79800       -3.44390       10.30460
S         -4.16740       -4.13020       11.86700
C         -4.66390       -2.92490        6.69900
C         -3.97150       -2.15750        5.81130
S         -2.53270       -1.44990        6.51910
C         -4.28590       -1.85580        4.45260
C         -3.59870       -1.01980        3.62410
C         -4.17460       -0.89660        2.33480
C         -3.69540       -0.15660        1.24180
C         -2.45450        0.62430        1.32940
C         -2.21600        1.53990        2.35340
C         -1.00630        2.19420        2.44060
C          0.01350        1.97370        1.51490
S          1.53000        2.84200        1.77460
C          2.82770        1.76620        1.06170
C          2.81090        0.36710        1.64420
C         -0.26680        1.11430        0.45840
F          0.62940        0.90140       -0.53380
C         -1.46300        0.43330        0.37290
C         -4.40020       -0.28320        0.05360
C         -5.52080       -1.13630       -0.10710
C         -6.00940       -1.85940        0.99370
C         -7.16100       -2.76390        0.87760
C         -8.24510       -2.64980        1.74530
C         -9.31830       -3.50950        1.64470
C         -9.35350       -4.51190        0.67880
S        -10.79890       -5.53230        0.60270
C        -10.11220       -7.21940        0.41060
C         -9.19550       -7.58800        1.55980
C         -8.27200       -4.60370       -0.19160
C         -7.18490       -3.75880       -0.09450
F         -8.25020       -5.53420       -1.17190
C         -5.33330       -1.70120        2.19450
S         -5.69920       -2.54760        3.67790
C         -5.98200       -1.15560       -1.45160
C         -5.27130       -0.34540       -2.28220
S         -4.01180        0.53750       -1.43370
C         -5.23820       -0.29370       -3.71290
C         -4.69290        0.68510       -4.48560
C         -4.41720        0.27350       -5.81380
C         -3.69440        0.99300       -6.77800
C         -3.30400        2.39560       -6.57320
C         -1.95960        2.75730       -6.58010
C         -1.56960        4.07290       -6.43150
C         -2.51610        5.07970       -6.27280
S         -2.14730        6.78890       -6.11350
C         -0.35190        6.86850       -6.46900
C          0.06560        8.32580       -6.51600
C         -3.85950        4.69690       -6.22900
F         -4.80360        5.64320       -6.05040
C         -4.26050        3.38700       -6.37030
C         -3.22420        0.26370       -7.85440
C         -3.46300       -1.12170       -8.02720
C         -4.32290       -1.80120       -7.14450
C         -4.63980       -3.21500       -7.37220
C         -5.05700       -3.63870       -8.63470
C         -5.38220       -4.95820       -8.86260
C         -5.28210       -5.91320       -7.85260
S         -5.69270       -7.58490       -8.25960
C         -6.61410       -8.17570       -6.79060
C         -7.81620       -7.30560       -6.48490
C         -4.81690       -5.48580       -6.61280
C         -4.51750       -4.16260       -6.36150
F         -4.62610       -6.36620       -5.60580
C         -4.75200       -1.08690       -6.03300
S         -5.56780       -1.75250       -4.63630
C         -2.53680       -1.70320       -8.93630
C         -1.63020       -0.81000       -9.43270
S         -2.05210        0.84990       -9.00660
C         -0.25840       -1.04680       -9.75580
C          0.70650       -0.08190       -9.68480
C          1.97220       -0.57190       -9.28820
C          3.01300        0.21400       -8.76530
C          2.91060        1.67990       -8.83480
C          2.80980        2.33300      -10.06070
C          2.64780        3.70240      -10.11540
C          2.55240        4.46000       -8.95250
S          2.28780        6.20880       -9.09210
C          3.59730        6.87640       -7.99820
C          4.97940        6.44640       -8.44690
C          2.61950        3.79010       -7.73600
F          2.46340        4.46650       -6.57600
C          2.81760        2.42670       -7.66480
C          3.97130       -0.45390       -8.02610
C          3.99450       -1.86520       -7.89130
C          3.01870       -2.66130       -8.52420
C          3.07570       -4.12380       -8.41840
C          1.98990       -4.88050       -7.99050
C          2.06530       -6.25750       -7.90890
C          3.22740       -6.93200       -8.26590
S          3.46150       -8.67500       -8.21160
C          1.78220       -9.34860       -7.96770
C          0.91760       -9.21190       -9.20660
C          4.31520       -6.15810       -8.67850
C          4.25780       -4.78570       -8.75140
F          5.46480       -6.77430       -9.01910
C          1.98150       -1.98150       -9.14420
S          0.43390       -2.65890       -9.61530
C          4.89130       -2.28110       -6.87490
C          5.50920       -1.24500       -6.23000
S          5.15340        0.30050       -6.98710
C          6.11100       -1.26560       -4.93780
S          6.69470        0.22210       -4.20750
C          6.75370       -0.52740       -2.67470
C          6.37840       -1.87930       -2.73320
C          6.03700       -2.29690       -4.01820
C          6.27330       -2.42440       -1.37920
S          5.86850       -3.94630       -0.95710
C          6.56200       -1.29460       -0.51580
C          6.88980       -0.18200       -1.29920
O          7.11570        0.89030       -0.54840
C          6.90010        0.49860        0.74580
C          6.56020       -0.83900        0.81370
C          6.96730        1.46460        1.80910
C          6.06550        1.58620        2.81950
C          6.37030        2.63050        3.73160
C          5.58890        3.10170        4.79820
C          4.22590        2.60880        5.03610
C          3.91110        1.25720        5.15120
C          2.60110        0.85390        5.30770
C          1.55280        1.77140        5.36390
S         -0.08560        1.13480        5.54290
C         -0.94530        2.46370        6.47650
C         -2.20610        1.91560        7.11020
C          1.88300        3.11660        5.23320
F          0.93100        4.07350        5.21780
C          3.18810        3.53360        5.08550
C          6.12750        4.14140        5.54340
C          7.37340        4.74420        5.25080
C          8.10630        4.33650        4.12640
C          9.34420        5.01690        3.72780
C          9.38160        6.40190        3.59490
C         10.53440        7.05250        3.19990
C         11.69500        6.33880        2.92320
S         13.23670        7.03820        2.43630
C         12.81780        8.74440        1.93740
C         12.02270        8.78880        0.64640
C         11.64520        4.95110        3.07060
C         10.50180        4.29010        3.45800
F         12.75690        4.22880        2.82860
C          7.58650        3.27590        3.39770
S          8.27180        2.62420        1.92880
C          7.71690        5.73610        6.21810
C          6.77940        5.88220        7.17560
S          5.41250        4.83970        6.97290
H         -2.57350       -3.52510       13.60050
H         -1.17170       -2.09400       11.92880
H          0.04350       -2.19850        7.68810
H          1.93930       -0.63490        7.59340
H          2.02030        3.44790       10.44610
H          2.66080        1.93980       11.14870
H          4.34700        3.79720       11.27840
H          4.28500        3.96240        9.51760
H          4.92110        2.48400       10.24080
H         -1.72900        0.21240       10.75070
H         -4.87940       -6.13730       10.00720
H         -6.90230       -7.47230       10.00150
H        -10.20470       -9.02870        9.51600
H         -8.67820       -8.60020       10.29890
H         -8.28650      -10.23550        8.43310
H         -7.55290       -8.68220        8.01490
H         -9.09910       -9.14470        7.30430
H         -7.02200       -2.85490        8.28020
H         -5.55850       -3.45750        6.42990
H         -2.69350       -0.52140        3.92390
H         -2.98700        1.74210        3.08090
H         -0.82120        2.89640        3.23720
H          2.72580        1.75690       -0.02140
H          3.74720        2.29020        1.32660
H          1.91230       -0.16980        1.35090
H          2.84220        0.40690        2.73160
H          3.67160       -0.19040        1.27710
H         -1.59930       -0.25690       -0.44470
H         -8.24890       -1.87590        2.49710
H        -10.15570       -3.41900        2.31860
H        -10.99980       -7.85170        0.39590
H         -9.61000       -7.29080       -0.55160
H         -8.86870       -8.62050        1.45190
H         -9.71420       -7.48180        2.51020
H         -8.31510       -6.94780        1.57430
H         -6.35890       -3.89410       -0.77570
H         -6.80570       -1.75600       -1.79330
H         -4.41940        1.65200       -4.10140
H         -1.20100        1.99660       -6.68230
H         -0.51870        4.30850       -6.43610
H          0.17840        6.33800       -5.67800
H         -0.17910        6.38640       -7.43100
H          1.12880        8.39490       -6.73410
H         -0.48360        8.85300       -7.29230
H         -0.12960        8.81160       -5.56270
H         -5.31280        3.14960       -6.34540
H         -5.15290       -2.91720       -9.43190
H         -5.72480       -5.27720       -9.83460
H         -5.93150       -8.23910       -5.94610
H         -6.91870       -9.18210       -7.07800
H         -8.37900       -7.73760       -5.66000
H         -7.50790       -6.30170       -6.19870
H         -8.46740       -7.23340       -7.35360
H         -4.15310       -3.89520       -5.38260
H         -2.45340       -2.76520       -9.08920
H          0.48320        0.96830       -9.75070
H          2.87240        1.76110      -10.97410
H          2.58270        4.20920      -11.06540
H          3.47530        7.95620       -8.08270
H          3.38930        6.57210       -6.97440
H          5.09390        5.36620       -8.37000
H          5.15380        6.74020       -9.47980
H          5.73180        6.91780       -7.81780
H          2.85400        1.95470       -6.69570
H          1.07840       -4.38890       -7.68900
H          1.20520       -6.80080       -7.55380
H          1.33950       -8.87310       -7.09340
H          1.96270      -10.39820       -7.73570
H          0.78340       -8.16740       -9.47950
H         -0.06120       -9.65130       -9.02400
H          1.37990       -9.72780      -10.04480
H          5.12440       -4.23860       -9.08900
H          4.99210       -3.30720       -6.57230
H          5.68990       -3.28400       -4.26070
H          6.35130       -1.39330        1.70510
H          5.19260        0.96770        2.89590
H          4.69960        0.51980        5.14310
H          2.36040       -0.19590        5.38010
H         -0.24540        2.81700        7.23240
H         -1.18490        3.27130        5.78730
H         -2.88940        1.54750        6.34830
H         -2.70130        2.70560        7.67110
H         -1.97210        1.09800        7.78710
H          3.37630        4.58900        4.96630
H          8.48820        6.97820        3.78320
H         10.52030        8.12680        3.11390
H         13.79200        9.21590        1.80840
H         12.30360        9.23530        2.76270
H         12.58320        8.31320       -0.15490
H         11.82610        9.82250        0.36810
H         11.07220        8.27020        0.75300
H         10.52640        3.21720        3.56360
H          8.63850        6.28870        6.19390
H          6.79290        6.55060        8.01430
