
  xtb     03072219083D
 energy: -468.548498445045 gnorm: 0.000268110794 xtb: 6.4.1 (unknown)
266293  0     0  0            999 V2000
   -2.7772   -3.3654   12.5596 C   0  0  0  0  0  0  0  0  0  0  0  0
   -2.0702   -2.6290   11.6795 C   0  0  0  0  0  0  0  0  0  0  0  0
   -2.6336   -2.6410   10.3690 C   0  0  0  0  0  0  0  0  0  0  0  0
   -2.1686   -1.9912    9.2200 C   0  0  0  0  0  0  0  0  0  0  0  0
   -0.9899   -1.1119    9.2196 C   0  0  0  0  0  0  0  0  0  0  0  0
    0.0594   -1.3315    8.3297 C   0  0  0  0  0  0  0  0  0  0  0  0
    1.1214   -0.4575    8.2719 C   0  0  0  0  0  0  0  0  0  0  0  0
    1.1698    0.6893    9.0650 C   0  0  0  0  0  0  0  0  0  0  0  0
    2.5152    1.7934    8.7588 S   0  0  0  0  0  0  0  0  0  0  0  0
    2.7776    2.6714   10.3506 C   0  0  0  0  0  0  0  0  0  0  0  0
    4.1720    3.2658   10.3456 C   0  0  0  0  0  0  0  0  0  0  0  0
    0.1202    0.8887    9.9565 C   0  0  0  0  0  0  0  0  0  0  0  0
    0.0777    1.9819   10.7536 F   0  0  0  0  0  0  0  0  0  0  0  0
   -0.9326   -0.0012   10.0540 C   0  0  0  0  0  0  0  0  0  0  0  0
   -2.9016   -2.1775    8.0576 C   0  0  0  0  0  0  0  0  0  0  0  0
   -4.0908   -2.9451    7.9987 C   0  0  0  0  0  0  0  0  0  0  0  0
   -4.5540   -3.6012    9.1504 C   0  0  0  0  0  0  0  0  0  0  0  0
   -5.7835   -4.4029    9.1357 C   0  0  0  0  0  0  0  0  0  0  0  0
   -5.7913   -5.7055    9.6241 C   0  0  0  0  0  0  0  0  0  0  0  0
   -6.9419   -6.4698    9.6081 C   0  0  0  0  0  0  0  0  0  0  0  0
   -8.1303   -5.9571    9.1013 C   0  0  0  0  0  0  0  0  0  0  0  0
   -9.6705   -6.8087    9.0327 S   0  0  0  0  0  0  0  0  0  0  0  0
   -9.2368   -8.5508    9.3651 C   0  0  0  0  0  0  0  0  0  0  0  0
   -8.4949   -9.1914    8.2072 C   0  0  0  0  0  0  0  0  0  0  0  0
   -8.1118   -4.6424    8.6305 C   0  0  0  0  0  0  0  0  0  0  0  0
   -6.9721   -3.8711    8.6386 C   0  0  0  0  0  0  0  0  0  0  0  0
   -9.2506   -4.1040    8.1493 F   0  0  0  0  0  0  0  0  0  0  0  0
   -3.7980   -3.4439   10.3046 C   0  0  0  0  0  0  0  0  0  0  0  0
   -4.1674   -4.1302   11.8670 S   0  0  0  0  0  0  0  0  0  0  0  0
   -4.6639   -2.9249    6.6990 C   0  0  0  0  0  0  0  0  0  0  0  0
   -3.9715   -2.1575    5.8113 C   0  0  0  0  0  0  0  0  0  0  0  0
   -2.5327   -1.4499    6.5191 S   0  0  0  0  0  0  0  0  0  0  0  0
   -4.2859   -1.8558    4.4526 C   0  0  0  0  0  0  0  0  0  0  0  0
   -3.5987   -1.0198    3.6241 C   0  0  0  0  0  0  0  0  0  0  0  0
   -4.1746   -0.8966    2.3348 C   0  0  0  0  0  0  0  0  0  0  0  0
   -3.6954   -0.1566    1.2418 C   0  0  0  0  0  0  0  0  0  0  0  0
   -2.4545    0.6243    1.3294 C   0  0  0  0  0  0  0  0  0  0  0  0
   -2.2160    1.5399    2.3534 C   0  0  0  0  0  0  0  0  0  0  0  0
   -1.0063    2.1942    2.4406 C   0  0  0  0  0  0  0  0  0  0  0  0
    0.0135    1.9737    1.5149 C   0  0  0  0  0  0  0  0  0  0  0  0
    1.5300    2.8420    1.7746 S   0  0  0  0  0  0  0  0  0  0  0  0
    2.8277    1.7662    1.0617 C   0  0  0  0  0  0  0  0  0  0  0  0
    2.8109    0.3671    1.6442 C   0  0  0  0  0  0  0  0  0  0  0  0
   -0.2668    1.1143    0.4584 C   0  0  0  0  0  0  0  0  0  0  0  0
    0.6294    0.9014   -0.5338 F   0  0  0  0  0  0  0  0  0  0  0  0
   -1.4630    0.4333    0.3729 C   0  0  0  0  0  0  0  0  0  0  0  0
   -4.4002   -0.2832    0.0536 C   0  0  0  0  0  0  0  0  0  0  0  0
   -5.5208   -1.1363   -0.1071 C   0  0  0  0  0  0  0  0  0  0  0  0
   -6.0094   -1.8594    0.9937 C   0  0  0  0  0  0  0  0  0  0  0  0
   -7.1610   -2.7639    0.8776 C   0  0  0  0  0  0  0  0  0  0  0  0
   -8.2451   -2.6498    1.7453 C   0  0  0  0  0  0  0  0  0  0  0  0
   -9.3183   -3.5095    1.6447 C   0  0  0  0  0  0  0  0  0  0  0  0
   -9.3535   -4.5119    0.6788 C   0  0  0  0  0  0  0  0  0  0  0  0
  -10.7989   -5.5323    0.6027 S   0  0  0  0  0  0  0  0  0  0  0  0
  -10.1122   -7.2194    0.4106 C   0  0  0  0  0  0  0  0  0  0  0  0
   -9.1955   -7.5880    1.5598 C   0  0  0  0  0  0  0  0  0  0  0  0
   -8.2720   -4.6037   -0.1916 C   0  0  0  0  0  0  0  0  0  0  0  0
   -7.1849   -3.7588   -0.0945 C   0  0  0  0  0  0  0  0  0  0  0  0
   -8.2502   -5.5342   -1.1719 F   0  0  0  0  0  0  0  0  0  0  0  0
   -5.3333   -1.7012    2.1945 C   0  0  0  0  0  0  0  0  0  0  0  0
   -5.6992   -2.5476    3.6779 S   0  0  0  0  0  0  0  0  0  0  0  0
   -5.9820   -1.1556   -1.4516 C   0  0  0  0  0  0  0  0  0  0  0  0
   -5.2713   -0.3454   -2.2822 C   0  0  0  0  0  0  0  0  0  0  0  0
   -4.0118    0.5375   -1.4337 S   0  0  0  0  0  0  0  0  0  0  0  0
   -5.2382   -0.2937   -3.7129 C   0  0  0  0  0  0  0  0  0  0  0  0
   -4.6929    0.6851   -4.4856 C   0  0  0  0  0  0  0  0  0  0  0  0
   -4.4172    0.2735   -5.8138 C   0  0  0  0  0  0  0  0  0  0  0  0
   -3.6944    0.9930   -6.7780 C   0  0  0  0  0  0  0  0  0  0  0  0
   -3.3040    2.3956   -6.5732 C   0  0  0  0  0  0  0  0  0  0  0  0
   -1.9596    2.7573   -6.5801 C   0  0  0  0  0  0  0  0  0  0  0  0
   -1.5696    4.0729   -6.4315 C   0  0  0  0  0  0  0  0  0  0  0  0
   -2.5161    5.0797   -6.2728 C   0  0  0  0  0  0  0  0  0  0  0  0
   -2.1473    6.7889   -6.1135 S   0  0  0  0  0  0  0  0  0  0  0  0
   -0.3519    6.8685   -6.4690 C   0  0  0  0  0  0  0  0  0  0  0  0
    0.0656    8.3258   -6.5160 C   0  0  0  0  0  0  0  0  0  0  0  0
   -3.8595    4.6969   -6.2290 C   0  0  0  0  0  0  0  0  0  0  0  0
   -4.8036    5.6432   -6.0504 F   0  0  0  0  0  0  0  0  0  0  0  0
   -4.2605    3.3870   -6.3703 C   0  0  0  0  0  0  0  0  0  0  0  0
   -3.2242    0.2637   -7.8544 C   0  0  0  0  0  0  0  0  0  0  0  0
   -3.4630   -1.1217   -8.0272 C   0  0  0  0  0  0  0  0  0  0  0  0
   -4.3229   -1.8012   -7.1445 C   0  0  0  0  0  0  0  0  0  0  0  0
   -4.6398   -3.2150   -7.3722 C   0  0  0  0  0  0  0  0  0  0  0  0
   -5.0570   -3.6387   -8.6347 C   0  0  0  0  0  0  0  0  0  0  0  0
   -5.3822   -4.9582   -8.8626 C   0  0  0  0  0  0  0  0  0  0  0  0
   -5.2821   -5.9132   -7.8526 C   0  0  0  0  0  0  0  0  0  0  0  0
   -5.6927   -7.5849   -8.2596 S   0  0  0  0  0  0  0  0  0  0  0  0
   -6.6141   -8.1757   -6.7906 C   0  0  0  0  0  0  0  0  0  0  0  0
   -7.8162   -7.3056   -6.4849 C   0  0  0  0  0  0  0  0  0  0  0  0
   -4.8169   -5.4858   -6.6128 C   0  0  0  0  0  0  0  0  0  0  0  0
   -4.5175   -4.1626   -6.3615 C   0  0  0  0  0  0  0  0  0  0  0  0
   -4.6261   -6.3662   -5.6058 F   0  0  0  0  0  0  0  0  0  0  0  0
   -4.7520   -1.0869   -6.0330 C   0  0  0  0  0  0  0  0  0  0  0  0
   -5.5678   -1.7525   -4.6363 S   0  0  0  0  0  0  0  0  0  0  0  0
   -2.5368   -1.7032   -8.9363 C   0  0  0  0  0  0  0  0  0  0  0  0
   -1.6302   -0.8100   -9.4327 C   0  0  0  0  0  0  0  0  0  0  0  0
   -2.0521    0.8499   -9.0066 S   0  0  0  0  0  0  0  0  0  0  0  0
   -0.2584   -1.0468   -9.7558 C   0  0  0  0  0  0  0  0  0  0  0  0
    0.7065   -0.0819   -9.6848 C   0  0  0  0  0  0  0  0  0  0  0  0
    1.9722   -0.5719   -9.2882 C   0  0  0  0  0  0  0  0  0  0  0  0
    3.0130    0.2140   -8.7653 C   0  0  0  0  0  0  0  0  0  0  0  0
    2.9106    1.6799   -8.8348 C   0  0  0  0  0  0  0  0  0  0  0  0
    2.8098    2.3330  -10.0607 C   0  0  0  0  0  0  0  0  0  0  0  0
    2.6478    3.7024  -10.1154 C   0  0  0  0  0  0  0  0  0  0  0  0
    2.5524    4.4600   -8.9525 C   0  0  0  0  0  0  0  0  0  0  0  0
    2.2878    6.2088   -9.0921 S   0  0  0  0  0  0  0  0  0  0  0  0
    3.5973    6.8764   -7.9982 C   0  0  0  0  0  0  0  0  0  0  0  0
    4.9794    6.4464   -8.4469 C   0  0  0  0  0  0  0  0  0  0  0  0
    2.6195    3.7901   -7.7360 C   0  0  0  0  0  0  0  0  0  0  0  0
    2.4634    4.4665   -6.5760 F   0  0  0  0  0  0  0  0  0  0  0  0
    2.8176    2.4267   -7.6648 C   0  0  0  0  0  0  0  0  0  0  0  0
    3.9713   -0.4539   -8.0261 C   0  0  0  0  0  0  0  0  0  0  0  0
    3.9945   -1.8652   -7.8913 C   0  0  0  0  0  0  0  0  0  0  0  0
    3.0187   -2.6613   -8.5242 C   0  0  0  0  0  0  0  0  0  0  0  0
    3.0757   -4.1238   -8.4184 C   0  0  0  0  0  0  0  0  0  0  0  0
    1.9899   -4.8805   -7.9905 C   0  0  0  0  0  0  0  0  0  0  0  0
    2.0653   -6.2575   -7.9089 C   0  0  0  0  0  0  0  0  0  0  0  0
    3.2274   -6.9320   -8.2659 C   0  0  0  0  0  0  0  0  0  0  0  0
    3.4615   -8.6750   -8.2116 S   0  0  0  0  0  0  0  0  0  0  0  0
    1.7822   -9.3486   -7.9677 C   0  0  0  0  0  0  0  0  0  0  0  0
    0.9176   -9.2119   -9.2066 C   0  0  0  0  0  0  0  0  0  0  0  0
    4.3152   -6.1581   -8.6785 C   0  0  0  0  0  0  0  0  0  0  0  0
    4.2578   -4.7857   -8.7514 C   0  0  0  0  0  0  0  0  0  0  0  0
    5.4648   -6.7743   -9.0191 F   0  0  0  0  0  0  0  0  0  0  0  0
    1.9815   -1.9815   -9.1442 C   0  0  0  0  0  0  0  0  0  0  0  0
    0.4339   -2.6589   -9.6153 S   0  0  0  0  0  0  0  0  0  0  0  0
    4.8913   -2.2811   -6.8749 C   0  0  0  0  0  0  0  0  0  0  0  0
    5.5092   -1.2450   -6.2300 C   0  0  0  0  0  0  0  0  0  0  0  0
    5.1534    0.3005   -6.9871 S   0  0  0  0  0  0  0  0  0  0  0  0
    6.1110   -1.2656   -4.9378 C   0  0  0  0  0  0  0  0  0  0  0  0
    6.6947    0.2221   -4.2075 S   0  0  0  0  0  0  0  0  0  0  0  0
    6.7537   -0.5274   -2.6747 C   0  0  0  0  0  0  0  0  0  0  0  0
    6.3784   -1.8793   -2.7332 C   0  0  0  0  0  0  0  0  0  0  0  0
    6.0370   -2.2969   -4.0182 C   0  0  0  0  0  0  0  0  0  0  0  0
    6.2733   -2.4244   -1.3792 C   0  0  0  0  0  0  0  0  0  0  0  0
    5.8685   -3.9463   -0.9571 S   0  0  0  0  0  0  0  0  0  0  0  0
    6.5620   -1.2946   -0.5158 C   0  0  0  0  0  0  0  0  0  0  0  0
    6.8898   -0.1820   -1.2992 C   0  0  0  0  0  0  0  0  0  0  0  0
    7.1157    0.8903   -0.5484 O   0  0  0  0  0  0  0  0  0  0  0  0
    6.9001    0.4986    0.7458 C   0  0  0  0  0  0  0  0  0  0  0  0
    6.5602   -0.8390    0.8137 C   0  0  0  0  0  0  0  0  0  0  0  0
    6.9673    1.4646    1.8091 C   0  0  0  0  0  0  0  0  0  0  0  0
    6.0655    1.5862    2.8195 C   0  0  0  0  0  0  0  0  0  0  0  0
    6.3703    2.6305    3.7316 C   0  0  0  0  0  0  0  0  0  0  0  0
    5.5889    3.1017    4.7982 C   0  0  0  0  0  0  0  0  0  0  0  0
    4.2259    2.6088    5.0361 C   0  0  0  0  0  0  0  0  0  0  0  0
    3.9111    1.2572    5.1512 C   0  0  0  0  0  0  0  0  0  0  0  0
    2.6011    0.8539    5.3077 C   0  0  0  0  0  0  0  0  0  0  0  0
    1.5528    1.7714    5.3639 C   0  0  0  0  0  0  0  0  0  0  0  0
   -0.0856    1.1348    5.5429 S   0  0  0  0  0  0  0  0  0  0  0  0
   -0.9453    2.4637    6.4765 C   0  0  0  0  0  0  0  0  0  0  0  0
   -2.2061    1.9156    7.1102 C   0  0  0  0  0  0  0  0  0  0  0  0
    1.8830    3.1166    5.2332 C   0  0  0  0  0  0  0  0  0  0  0  0
    0.9310    4.0735    5.2178 F   0  0  0  0  0  0  0  0  0  0  0  0
    3.1881    3.5336    5.0855 C   0  0  0  0  0  0  0  0  0  0  0  0
    6.1275    4.1414    5.5434 C   0  0  0  0  0  0  0  0  0  0  0  0
    7.3734    4.7442    5.2508 C   0  0  0  0  0  0  0  0  0  0  0  0
    8.1063    4.3365    4.1264 C   0  0  0  0  0  0  0  0  0  0  0  0
    9.3442    5.0169    3.7278 C   0  0  0  0  0  0  0  0  0  0  0  0
    9.3816    6.4019    3.5949 C   0  0  0  0  0  0  0  0  0  0  0  0
   10.5344    7.0525    3.1999 C   0  0  0  0  0  0  0  0  0  0  0  0
   11.6950    6.3388    2.9232 C   0  0  0  0  0  0  0  0  0  0  0  0
   13.2367    7.0382    2.4363 S   0  0  0  0  0  0  0  0  0  0  0  0
   12.8178    8.7444    1.9374 C   0  0  0  0  0  0  0  0  0  0  0  0
   12.0227    8.7888    0.6464 C   0  0  0  0  0  0  0  0  0  0  0  0
   11.6452    4.9511    3.0706 C   0  0  0  0  0  0  0  0  0  0  0  0
   10.5018    4.2901    3.4580 C   0  0  0  0  0  0  0  0  0  0  0  0
   12.7569    4.2288    2.8286 F   0  0  0  0  0  0  0  0  0  0  0  0
    7.5865    3.2759    3.3977 C   0  0  0  0  0  0  0  0  0  0  0  0
    8.2718    2.6242    1.9288 S   0  0  0  0  0  0  0  0  0  0  0  0
    7.7169    5.7361    6.2181 C   0  0  0  0  0  0  0  0  0  0  0  0
    6.7794    5.8822    7.1756 C   0  0  0  0  0  0  0  0  0  0  0  0
    5.4125    4.8397    6.9729 S   0  0  0  0  0  0  0  0  0  0  0  0
   -2.5735   -3.5251   13.6005 H   0  0  0  0  0  0  0  0  0  0  0  0
   -1.1717   -2.0940   11.9288 H   0  0  0  0  0  0  0  0  0  0  0  0
    0.0435   -2.1985    7.6881 H   0  0  0  0  0  0  0  0  0  0  0  0
    1.9393   -0.6349    7.5934 H   0  0  0  0  0  0  0  0  0  0  0  0
    2.0203    3.4479   10.4461 H   0  0  0  0  0  0  0  0  0  0  0  0
    2.6608    1.9398   11.1487 H   0  0  0  0  0  0  0  0  0  0  0  0
    4.3470    3.7972   11.2784 H   0  0  0  0  0  0  0  0  0  0  0  0
    4.2850    3.9624    9.5176 H   0  0  0  0  0  0  0  0  0  0  0  0
    4.9211    2.4840   10.2408 H   0  0  0  0  0  0  0  0  0  0  0  0
   -1.7290    0.2124   10.7507 H   0  0  0  0  0  0  0  0  0  0  0  0
   -4.8794   -6.1373   10.0072 H   0  0  0  0  0  0  0  0  0  0  0  0
   -6.9023   -7.4723   10.0015 H   0  0  0  0  0  0  0  0  0  0  0  0
  -10.2047   -9.0287    9.5160 H   0  0  0  0  0  0  0  0  0  0  0  0
   -8.6782   -8.6002   10.2989 H   0  0  0  0  0  0  0  0  0  0  0  0
   -8.2865  -10.2355    8.4331 H   0  0  0  0  0  0  0  0  0  0  0  0
   -7.5529   -8.6822    8.0149 H   0  0  0  0  0  0  0  0  0  0  0  0
   -9.0991   -9.1447    7.3043 H   0  0  0  0  0  0  0  0  0  0  0  0
   -7.0220   -2.8549    8.2802 H   0  0  0  0  0  0  0  0  0  0  0  0
   -5.5585   -3.4575    6.4299 H   0  0  0  0  0  0  0  0  0  0  0  0
   -2.6935   -0.5214    3.9239 H   0  0  0  0  0  0  0  0  0  0  0  0
   -2.9870    1.7421    3.0809 H   0  0  0  0  0  0  0  0  0  0  0  0
   -0.8212    2.8964    3.2372 H   0  0  0  0  0  0  0  0  0  0  0  0
    2.7258    1.7569   -0.0214 H   0  0  0  0  0  0  0  0  0  0  0  0
    3.7472    2.2902    1.3266 H   0  0  0  0  0  0  0  0  0  0  0  0
    1.9123   -0.1698    1.3509 H   0  0  0  0  0  0  0  0  0  0  0  0
    2.8422    0.4069    2.7316 H   0  0  0  0  0  0  0  0  0  0  0  0
    3.6716   -0.1904    1.2771 H   0  0  0  0  0  0  0  0  0  0  0  0
   -1.5993   -0.2569   -0.4447 H   0  0  0  0  0  0  0  0  0  0  0  0
   -8.2489   -1.8759    2.4971 H   0  0  0  0  0  0  0  0  0  0  0  0
  -10.1557   -3.4190    2.3186 H   0  0  0  0  0  0  0  0  0  0  0  0
  -10.9998   -7.8517    0.3959 H   0  0  0  0  0  0  0  0  0  0  0  0
   -9.6100   -7.2908   -0.5516 H   0  0  0  0  0  0  0  0  0  0  0  0
   -8.8687   -8.6205    1.4519 H   0  0  0  0  0  0  0  0  0  0  0  0
   -9.7142   -7.4818    2.5102 H   0  0  0  0  0  0  0  0  0  0  0  0
   -8.3151   -6.9478    1.5743 H   0  0  0  0  0  0  0  0  0  0  0  0
   -6.3589   -3.8941   -0.7757 H   0  0  0  0  0  0  0  0  0  0  0  0
   -6.8057   -1.7560   -1.7933 H   0  0  0  0  0  0  0  0  0  0  0  0
   -4.4194    1.6520   -4.1014 H   0  0  0  0  0  0  0  0  0  0  0  0
   -1.2010    1.9966   -6.6823 H   0  0  0  0  0  0  0  0  0  0  0  0
   -0.5187    4.3085   -6.4361 H   0  0  0  0  0  0  0  0  0  0  0  0
    0.1784    6.3380   -5.6780 H   0  0  0  0  0  0  0  0  0  0  0  0
   -0.1791    6.3864   -7.4310 H   0  0  0  0  0  0  0  0  0  0  0  0
    1.1288    8.3949   -6.7341 H   0  0  0  0  0  0  0  0  0  0  0  0
   -0.4836    8.8530   -7.2923 H   0  0  0  0  0  0  0  0  0  0  0  0
   -0.1296    8.8116   -5.5627 H   0  0  0  0  0  0  0  0  0  0  0  0
   -5.3128    3.1496   -6.3454 H   0  0  0  0  0  0  0  0  0  0  0  0
   -5.1529   -2.9172   -9.4319 H   0  0  0  0  0  0  0  0  0  0  0  0
   -5.7248   -5.2772   -9.8346 H   0  0  0  0  0  0  0  0  0  0  0  0
   -5.9315   -8.2391   -5.9461 H   0  0  0  0  0  0  0  0  0  0  0  0
   -6.9187   -9.1821   -7.0780 H   0  0  0  0  0  0  0  0  0  0  0  0
   -8.3790   -7.7376   -5.6600 H   0  0  0  0  0  0  0  0  0  0  0  0
   -7.5079   -6.3017   -6.1987 H   0  0  0  0  0  0  0  0  0  0  0  0
   -8.4674   -7.2334   -7.3536 H   0  0  0  0  0  0  0  0  0  0  0  0
   -4.1531   -3.8952   -5.3826 H   0  0  0  0  0  0  0  0  0  0  0  0
   -2.4534   -2.7652   -9.0892 H   0  0  0  0  0  0  0  0  0  0  0  0
    0.4832    0.9683   -9.7507 H   0  0  0  0  0  0  0  0  0  0  0  0
    2.8724    1.7611  -10.9741 H   0  0  0  0  0  0  0  0  0  0  0  0
    2.5827    4.2092  -11.0654 H   0  0  0  0  0  0  0  0  0  0  0  0
    3.4753    7.9562   -8.0827 H   0  0  0  0  0  0  0  0  0  0  0  0
    3.3893    6.5721   -6.9744 H   0  0  0  0  0  0  0  0  0  0  0  0
    5.0939    5.3662   -8.3700 H   0  0  0  0  0  0  0  0  0  0  0  0
    5.1538    6.7402   -9.4798 H   0  0  0  0  0  0  0  0  0  0  0  0
    5.7318    6.9178   -7.8178 H   0  0  0  0  0  0  0  0  0  0  0  0
    2.8540    1.9547   -6.6957 H   0  0  0  0  0  0  0  0  0  0  0  0
    1.0784   -4.3889   -7.6890 H   0  0  0  0  0  0  0  0  0  0  0  0
    1.2052   -6.8008   -7.5538 H   0  0  0  0  0  0  0  0  0  0  0  0
    1.3395   -8.8731   -7.0934 H   0  0  0  0  0  0  0  0  0  0  0  0
    1.9627  -10.3982   -7.7357 H   0  0  0  0  0  0  0  0  0  0  0  0
    0.7834   -8.1674   -9.4795 H   0  0  0  0  0  0  0  0  0  0  0  0
   -0.0612   -9.6513   -9.0240 H   0  0  0  0  0  0  0  0  0  0  0  0
    1.3799   -9.7278  -10.0448 H   0  0  0  0  0  0  0  0  0  0  0  0
    5.1244   -4.2386   -9.0890 H   0  0  0  0  0  0  0  0  0  0  0  0
    4.9921   -3.3072   -6.5723 H   0  0  0  0  0  0  0  0  0  0  0  0
    5.6899   -3.2840   -4.2607 H   0  0  0  0  0  0  0  0  0  0  0  0
    6.3513   -1.3933    1.7051 H   0  0  0  0  0  0  0  0  0  0  0  0
    5.1926    0.9677    2.8959 H   0  0  0  0  0  0  0  0  0  0  0  0
    4.6996    0.5198    5.1431 H   0  0  0  0  0  0  0  0  0  0  0  0
    2.3604   -0.1959    5.3801 H   0  0  0  0  0  0  0  0  0  0  0  0
   -0.2454    2.8170    7.2324 H   0  0  0  0  0  0  0  0  0  0  0  0
   -1.1849    3.2713    5.7873 H   0  0  0  0  0  0  0  0  0  0  0  0
   -2.8894    1.5475    6.3483 H   0  0  0  0  0  0  0  0  0  0  0  0
   -2.7013    2.7056    7.6711 H   0  0  0  0  0  0  0  0  0  0  0  0
   -1.9721    1.0980    7.7871 H   0  0  0  0  0  0  0  0  0  0  0  0
    3.3763    4.5890    4.9663 H   0  0  0  0  0  0  0  0  0  0  0  0
    8.4882    6.9782    3.7832 H   0  0  0  0  0  0  0  0  0  0  0  0
   10.5203    8.1268    3.1139 H   0  0  0  0  0  0  0  0  0  0  0  0
   13.7920    9.2159    1.8084 H   0  0  0  0  0  0  0  0  0  0  0  0
   12.3036    9.2353    2.7627 H   0  0  0  0  0  0  0  0  0  0  0  0
   12.5832    8.3132   -0.1549 H   0  0  0  0  0  0  0  0  0  0  0  0
   11.8261    9.8225    0.3681 H   0  0  0  0  0  0  0  0  0  0  0  0
   11.0722    8.2702    0.7530 H   0  0  0  0  0  0  0  0  0  0  0  0
   10.5264    3.2172    3.5636 H   0  0  0  0  0  0  0  0  0  0  0  0
    8.6385    6.2887    6.1939 H   0  0  0  0  0  0  0  0  0  0  0  0
    6.7929    6.5506    8.0143 H   0  0  0  0  0  0  0  0  0  0  0  0
  1  2  2  0  0  0  0
  2  3  1  0  0  0  0
  3  4  2  0  0  0  0
  4  5  1  0  0  0  0
  5  6  2  0  0  0  0
  6  7  1  0  0  0  0
  7  8  2  0  0  0  0
  8  9  1  0  0  0  0
  9 10  1  0  0  0  0
 10 11  1  0  0  0  0
  8 12  1  0  0  0  0
 12 13  1  0  0  0  0
 12 14  2  0  0  0  0
  4 15  1  0  0  0  0
 15 16  2  0  0  0  0
 16 17  1  0  0  0  0
 17 18  1  0  0  0  0
 18 19  2  0  0  0  0
 19 20  1  0  0  0  0
 20 21  2  0  0  0  0
 21 22  1  0  0  0  0
 22 23  1  0  0  0  0
 23 24  1  0  0  0  0
 21 25  1  0  0  0  0
 25 26  2  0  0  0  0
 25 27  1  0  0  0  0
 17 28  2  0  0  0  0
 28 29  1  0  0  0  0
 16 30  1  0  0  0  0
 30 31  2  0  0  0  0
 31 32  1  0  0  0  0
 31 33  1  0  0  0  0
 33 34  2  0  0  0  0
 34 35  1  0  0  0  0
 35 36  2  0  0  0  0
 36 37  1  0  0  0  0
 37 38  2  0  0  0  0
 38 39  1  0  0  0  0
 39 40  2  0  0  0  0
 40 41  1  0  0  0  0
 41 42  1  0  0  0  0
 42 43  1  0  0  0  0
 40 44  1  0  0  0  0
 44 45  1  0  0  0  0
 44 46  2  0  0  0  0
 36 47  1  0  0  0  0
 47 48  2  0  0  0  0
 48 49  1  0  0  0  0
 49 50  1  0  0  0  0
 50 51  2  0  0  0  0
 51 52  1  0  0  0  0
 52 53  2  0  0  0  0
 53 54  1  0  0  0  0
 54 55  1  0  0  0  0
 55 56  1  0  0  0  0
 53 57  1  0  0  0  0
 57 58  2  0  0  0  0
 57 59  1  0  0  0  0
 49 60  2  0  0  0  0
 60 61  1  0  0  0  0
 48 62  1  0  0  0  0
 62 63  2  0  0  0  0
 63 64  1  0  0  0  0
 63 65  1  0  0  0  0
 65 66  2  0  0  0  0
 66 67  1  0  0  0  0
 67 68  2  0  0  0  0
 68 69  1  0  0  0  0
 69 70  2  0  0  0  0
 70 71  1  0  0  0  0
 71 72  2  0  0  0  0
 72 73  1  0  0  0  0
 73 74  1  0  0  0  0
 74 75  1  0  0  0  0
 72 76  1  0  0  0  0
 76 77  1  0  0  0  0
 76 78  2  0  0  0  0
 68 79  1  0  0  0  0
 79 80  2  0  0  0  0
 80 81  1  0  0  0  0
 81 82  1  0  0  0  0
 82 83  2  0  0  0  0
 83 84  1  0  0  0  0
 84 85  2  0  0  0  0
 85 86  1  0  0  0  0
 86 87  1  0  0  0  0
 87 88  1  0  0  0  0
 85 89  1  0  0  0  0
 89 90  2  0  0  0  0
 89 91  1  0  0  0  0
 81 92  2  0  0  0  0
 92 93  1  0  0  0  0
 80 94  1  0  0  0  0
 94 95  2  0  0  0  0
 95 96  1  0  0  0  0
 95 97  1  0  0  0  0
 97 98  2  0  0  0  0
 98 99  1  0  0  0  0
 99100  2  0  0  0  0
100101  1  0  0  0  0
101102  2  0  0  0  0
102103  1  0  0  0  0
103104  2  0  0  0  0
104105  1  0  0  0  0
105106  1  0  0  0  0
106107  1  0  0  0  0
104108  1  0  0  0  0
108109  1  0  0  0  0
108110  2  0  0  0  0
100111  1  0  0  0  0
111112  2  0  0  0  0
112113  1  0  0  0  0
113114  1  0  0  0  0
114115  2  0  0  0  0
115116  1  0  0  0  0
116117  2  0  0  0  0
117118  1  0  0  0  0
118119  1  0  0  0  0
119120  1  0  0  0  0
117121  1  0  0  0  0
121122  2  0  0  0  0
121123  1  0  0  0  0
113124  2  0  0  0  0
124125  1  0  0  0  0
112126  1  0  0  0  0
126127  2  0  0  0  0
127128  1  0  0  0  0
127129  1  0  0  0  0
129130  1  0  0  0  0
130131  1  0  0  0  0
131132  2  0  0  0  0
132133  1  0  0  0  0
132134  1  0  0  0  0
134135  2  0  0  0  0
134136  1  0  0  0  0
136137  2  0  0  0  0
137138  1  0  0  0  0
138139  1  0  0  0  0
139140  2  0  0  0  0
139141  1  0  0  0  0
141142  2  0  0  0  0
142143  1  0  0  0  0
143144  2  0  0  0  0
144145  1  0  0  0  0
145146  2  0  0  0  0
146147  1  0  0  0  0
147148  2  0  0  0  0
148149  1  0  0  0  0
149150  1  0  0  0  0
150151  1  0  0  0  0
148152  1  0  0  0  0
152153  1  0  0  0  0
152154  2  0  0  0  0
144155  1  0  0  0  0
155156  2  0  0  0  0
156157  1  0  0  0  0
157158  1  0  0  0  0
158159  2  0  0  0  0
159160  1  0  0  0  0
160161  2  0  0  0  0
161162  1  0  0  0  0
162163  1  0  0  0  0
163164  1  0  0  0  0
161165  1  0  0  0  0
165166  2  0  0  0  0
165167  1  0  0  0  0
157168  2  0  0  0  0
168169  1  0  0  0  0
156170  1  0  0  0  0
170171  2  0  0  0  0
171172  1  0  0  0  0
 29  1  1  0  0  0  0
 61 33  1  0  0  0  0
 93 65  1  0  0  0  0
125 97  1  0  0  0  0
133129  2  0  0  0  0
140136  1  0  0  0  0
169141  1  0  0  0  0
 28  3  1  0  0  0  0
 60 35  1  0  0  0  0
 92 67  1  0  0  0  0
124 99  1  0  0  0  0
137131  1  0  0  0  0
168143  1  0  0  0  0
 14  5  1  0  0  0  0
 32 15  1  0  0  0  0
 46 37  1  0  0  0  0
 64 47  1  0  0  0  0
 78 69  1  0  0  0  0
 96 79  1  0  0  0  0
110101  1  0  0  0  0
128111  1  0  0  0  0
154145  1  0  0  0  0
172155  1  0  0  0  0
 26 18  1  0  0  0  0
 58 50  1  0  0  0  0
 90 82  1  0  0  0  0
122114  1  0  0  0  0
166158  1  0  0  0  0
  1173  1  0  0  0  0
  2174  1  0  0  0  0
  6175  1  0  0  0  0
  7176  1  0  0  0  0
 10177  1  0  0  0  0
 10178  1  0  0  0  0
 11179  1  0  0  0  0
 11180  1  0  0  0  0
 11181  1  0  0  0  0
 14182  1  0  0  0  0
 19183  1  0  0  0  0
 20184  1  0  0  0  0
 23185  1  0  0  0  0
 23186  1  0  0  0  0
 24187  1  0  0  0  0
 24188  1  0  0  0  0
 24189  1  0  0  0  0
 26190  1  0  0  0  0
 30191  1  0  0  0  0
 34192  1  0  0  0  0
 38193  1  0  0  0  0
 39194  1  0  0  0  0
 42195  1  0  0  0  0
 42196  1  0  0  0  0
 43197  1  0  0  0  0
 43198  1  0  0  0  0
 43199  1  0  0  0  0
 46200  1  0  0  0  0
 51201  1  0  0  0  0
 52202  1  0  0  0  0
 55203  1  0  0  0  0
 55204  1  0  0  0  0
 56205  1  0  0  0  0
 56206  1  0  0  0  0
 56207  1  0  0  0  0
 58208  1  0  0  0  0
 62209  1  0  0  0  0
 66210  1  0  0  0  0
 70211  1  0  0  0  0
 71212  1  0  0  0  0
 74213  1  0  0  0  0
 74214  1  0  0  0  0
 75215  1  0  0  0  0
 75216  1  0  0  0  0
 75217  1  0  0  0  0
 78218  1  0  0  0  0
 83219  1  0  0  0  0
 84220  1  0  0  0  0
 87221  1  0  0  0  0
 87222  1  0  0  0  0
 88223  1  0  0  0  0
 88224  1  0  0  0  0
 88225  1  0  0  0  0
 90226  1  0  0  0  0
 94227  1  0  0  0  0
 98228  1  0  0  0  0
102229  1  0  0  0  0
103230  1  0  0  0  0
106231  1  0  0  0  0
106232  1  0  0  0  0
107233  1  0  0  0  0
107234  1  0  0  0  0
107235  1  0  0  0  0
110236  1  0  0  0  0
115237  1  0  0  0  0
116238  1  0  0  0  0
119239  1  0  0  0  0
119240  1  0  0  0  0
120241  1  0  0  0  0
120242  1  0  0  0  0
120243  1  0  0  0  0
122244  1  0  0  0  0
126245  1  0  0  0  0
133246  1  0  0  0  0
140247  1  0  0  0  0
142248  1  0  0  0  0
146249  1  0  0  0  0
147250  1  0  0  0  0
150251  1  0  0  0  0
150252  1  0  0  0  0
151253  1  0  0  0  0
151254  1  0  0  0  0
151255  1  0  0  0  0
154256  1  0  0  0  0
159257  1  0  0  0  0
160258  1  0  0  0  0
163259  1  0  0  0  0
163260  1  0  0  0  0
164261  1  0  0  0  0
164262  1  0  0  0  0
164263  1  0  0  0  0
166264  1  0  0  0  0
170265  1  0  0  0  0
171266  1  0  0  0  0
M  END
