
  xtb     03032203333D
 energy: -457.870585515962 gnorm: 0.000300458933 xtb: 6.4.1 (unknown)
232259  0     0  0            999 V2000
    2.6200   -7.8926   11.4479 C   0  0  0  0  0  0  0  0  0  0  0  0
    3.0397   -7.1600   10.3961 C   0  0  0  0  0  0  0  0  0  0  0  0
    2.1525   -7.2337    9.2835 C   0  0  0  0  0  0  0  0  0  0  0  0
    2.2551   -6.5881    8.0428 C   0  0  0  0  0  0  0  0  0  0  0  0
    3.3303   -5.6596    7.7277 C   0  0  0  0  0  0  0  0  0  0  0  0
    3.6430   -4.2861    8.7481 S   0  0  0  0  0  0  0  0  0  0  0  0
    4.8466   -3.6571    7.6719 C   0  0  0  0  0  0  0  0  0  0  0  0
    5.5515   -2.3790    7.9678 C   0  0  0  0  0  0  0  0  0  0  0  0
    4.5668   -1.2537    8.2797 C   0  0  0  0  0  0  0  0  0  0  0  0
    4.9949   -4.4829    6.5989 C   0  0  0  0  0  0  0  0  0  0  0  0
    6.0970   -4.2040    5.3151 Cl  0  0  0  0  0  0  0  0  0  0  0  0
    4.1380   -5.6173    6.6259 C   0  0  0  0  0  0  0  0  0  0  0  0
    4.1974   -6.8320    5.4187 Cl  0  0  0  0  0  0  0  0  0  0  0  0
    1.2325   -6.8153    7.1299 C   0  0  0  0  0  0  0  0  0  0  0  0
    0.1171   -7.6455    7.3995 C   0  0  0  0  0  0  0  0  0  0  0  0
    0.0277   -8.3088    8.6339 C   0  0  0  0  0  0  0  0  0  0  0  0
   -1.1024   -9.1678    8.9491 C   0  0  0  0  0  0  0  0  0  0  0  0
   -2.7364   -8.5829    8.8338 S   0  0  0  0  0  0  0  0  0  0  0  0
   -3.3989  -10.0939    9.3580 C   0  0  0  0  0  0  0  0  0  0  0  0
   -4.8713  -10.2993    9.4356 C   0  0  0  0  0  0  0  0  0  0  0  0
   -5.4738  -10.4700    8.0392 C   0  0  0  0  0  0  0  0  0  0  0  0
   -2.4005  -10.9900    9.5953 C   0  0  0  0  0  0  0  0  0  0  0  0
   -1.0975  -10.4675    9.3717 C   0  0  0  0  0  0  0  0  0  0  0  0
    0.3153  -11.4227    9.5369 Cl  0  0  0  0  0  0  0  0  0  0  0  0
   -2.6627  -12.6027   10.1196 Cl  0  0  0  0  0  0  0  0  0  0  0  0
    1.0522   -8.0850    9.5476 C   0  0  0  0  0  0  0  0  0  0  0  0
    1.1347   -8.7291   11.1624 S   0  0  0  0  0  0  0  0  0  0  0  0
   -0.7936   -7.6769    6.3110 C   0  0  0  0  0  0  0  0  0  0  0  0
   -0.4082   -6.8978    5.2632 C   0  0  0  0  0  0  0  0  0  0  0  0
    1.1112   -6.0794    5.5627 S   0  0  0  0  0  0  0  0  0  0  0  0
   -1.0465   -6.6721    4.0083 C   0  0  0  0  0  0  0  0  0  0  0  0
   -0.4886   -6.0235    2.9487 C   0  0  0  0  0  0  0  0  0  0  0  0
   -1.3506   -5.9060    1.8345 C   0  0  0  0  0  0  0  0  0  0  0  0
   -1.0756   -5.2867    0.6030 C   0  0  0  0  0  0  0  0  0  0  0  0
    0.2333   -4.6935    0.3703 C   0  0  0  0  0  0  0  0  0  0  0  0
    1.6923   -5.6199    0.5744 S   0  0  0  0  0  0  0  0  0  0  0  0
    2.7031   -4.2410    0.3076 C   0  0  0  0  0  0  0  0  0  0  0  0
    4.1815   -4.3363    0.4490 C   0  0  0  0  0  0  0  0  0  0  0  0
    4.5823   -4.3287    1.9264 C   0  0  0  0  0  0  0  0  0  0  0  0
    1.9409   -3.1379    0.0641 C   0  0  0  0  0  0  0  0  0  0  0  0
    2.5879   -1.5749   -0.2267 Cl  0  0  0  0  0  0  0  0  0  0  0  0
    0.5419   -3.3911    0.0913 C   0  0  0  0  0  0  0  0  0  0  0  0
   -0.6182   -2.1458   -0.1101 Cl  0  0  0  0  0  0  0  0  0  0  0  0
   -2.1209   -5.2132   -0.3054 C   0  0  0  0  0  0  0  0  0  0  0  0
   -3.4218   -5.7013   -0.0183 C   0  0  0  0  0  0  0  0  0  0  0  0
   -3.6746   -6.3789    1.1884 C   0  0  0  0  0  0  0  0  0  0  0  0
   -4.9860   -6.9402    1.4617 C   0  0  0  0  0  0  0  0  0  0  0  0
   -5.8418   -6.5887    2.9337 S   0  0  0  0  0  0  0  0  0  0  0  0
   -7.2065   -7.5398    2.4586 C   0  0  0  0  0  0  0  0  0  0  0  0
   -8.4274   -7.6223    3.3069 C   0  0  0  0  0  0  0  0  0  0  0  0
   -9.4154   -6.5095    2.9476 C   0  0  0  0  0  0  0  0  0  0  0  0
   -6.9963   -8.0917    1.2299 C   0  0  0  0  0  0  0  0  0  0  0  0
   -5.7378   -7.7580    0.6628 C   0  0  0  0  0  0  0  0  0  0  0  0
   -5.2049   -8.3921   -0.8411 Cl  0  0  0  0  0  0  0  0  0  0  0  0
   -8.1301   -9.1017    0.4300 Cl  0  0  0  0  0  0  0  0  0  0  0  0
   -2.6274   -6.4575    2.0968 C   0  0  0  0  0  0  0  0  0  0  0  0
   -2.6901   -7.1827    3.6827 S   0  0  0  0  0  0  0  0  0  0  0  0
   -4.3506   -5.3427   -1.0280 C   0  0  0  0  0  0  0  0  0  0  0  0
   -3.7849   -4.6728   -2.0704 C   0  0  0  0  0  0  0  0  0  0  0  0
   -2.0553   -4.4748   -1.8770 S   0  0  0  0  0  0  0  0  0  0  0  0
   -4.4404   -3.9751   -3.1360 C   0  0  0  0  0  0  0  0  0  0  0  0
   -5.6427   -3.3368   -3.0584 C   0  0  0  0  0  0  0  0  0  0  0  0
   -5.8814   -2.4585   -4.1448 C   0  0  0  0  0  0  0  0  0  0  0  0
   -6.9061   -1.4970   -4.2455 C   0  0  0  0  0  0  0  0  0  0  0  0
   -7.9964   -1.5011   -3.2812 C   0  0  0  0  0  0  0  0  0  0  0  0
   -9.0003   -2.9132   -3.1193 S   0  0  0  0  0  0  0  0  0  0  0  0
   -9.9399   -2.1987   -1.8522 C   0  0  0  0  0  0  0  0  0  0  0  0
  -11.0251   -2.9632   -1.1777 C   0  0  0  0  0  0  0  0  0  0  0  0
  -10.4472   -4.0161   -0.2289 C   0  0  0  0  0  0  0  0  0  0  0  0
   -9.4854   -0.9438   -1.5801 C   0  0  0  0  0  0  0  0  0  0  0  0
  -10.1565    0.0801   -0.3770 Cl  0  0  0  0  0  0  0  0  0  0  0  0
   -8.3849   -0.5441   -2.3878 C   0  0  0  0  0  0  0  0  0  0  0  0
   -7.5864    0.9549   -2.1643 Cl  0  0  0  0  0  0  0  0  0  0  0  0
   -6.7605   -0.5331   -5.2303 C   0  0  0  0  0  0  0  0  0  0  0  0
   -5.7131   -0.5715   -6.1859 C   0  0  0  0  0  0  0  0  0  0  0  0
   -4.7720   -1.6181   -6.1733 C   0  0  0  0  0  0  0  0  0  0  0  0
   -3.7557   -1.7059   -7.2016 C   0  0  0  0  0  0  0  0  0  0  0  0
   -2.0791   -1.9850   -6.8338 S   0  0  0  0  0  0  0  0  0  0  0  0
   -1.6238   -1.9327   -8.5021 C   0  0  0  0  0  0  0  0  0  0  0  0
   -0.2149   -2.1664   -8.9216 C   0  0  0  0  0  0  0  0  0  0  0  0
    0.0918   -3.6646   -8.9845 C   0  0  0  0  0  0  0  0  0  0  0  0
   -2.7187   -1.7262   -9.2880 C   0  0  0  0  0  0  0  0  0  0  0  0
   -3.9269   -1.5891   -8.5561 C   0  0  0  0  0  0  0  0  0  0  0  0
   -5.4474   -1.3853   -9.3240 Cl  0  0  0  0  0  0  0  0  0  0  0  0
   -2.6646   -1.6319  -11.0006 Cl  0  0  0  0  0  0  0  0  0  0  0  0
   -4.8291   -2.4864   -5.0892 C   0  0  0  0  0  0  0  0  0  0  0  0
   -3.5961   -3.6243   -4.6277 S   0  0  0  0  0  0  0  0  0  0  0  0
   -5.6217    0.6330   -6.9193 C   0  0  0  0  0  0  0  0  0  0  0  0
   -6.5227    1.5841   -6.5293 C   0  0  0  0  0  0  0  0  0  0  0  0
   -7.6768    0.9452   -5.3693 S   0  0  0  0  0  0  0  0  0  0  0  0
   -6.3479    2.9886   -6.6862 C   0  0  0  0  0  0  0  0  0  0  0  0
   -5.0160    3.5505   -7.6983 S   0  0  0  0  0  0  0  0  0  0  0  0
   -4.9872    5.0402   -6.8308 C   0  0  0  0  0  0  0  0  0  0  0  0
   -4.1104    6.0845   -6.5487 C   0  0  0  0  0  0  0  0  0  0  0  0
   -4.6455    6.7775   -5.4402 C   0  0  0  0  0  0  0  0  0  0  0  0
   -5.8424    6.2121   -5.0803 N   0  0  0  0  0  0  0  0  0  0  0  0
   -6.7055    6.6455   -4.0131 C   0  0  0  0  0  0  0  0  0  0  0  0
   -7.7466    7.6477   -4.5073 C   0  0  0  0  0  0  0  0  0  0  0  0
   -6.0404    5.1260   -5.8948 C   0  0  0  0  0  0  0  0  0  0  0  0
   -6.8230    3.9654   -5.8373 C   0  0  0  0  0  0  0  0  0  0  0  0
   -3.7232    7.6391   -4.8322 C   0  0  0  0  0  0  0  0  0  0  0  0
   -2.4965    7.5972   -5.4604 C   0  0  0  0  0  0  0  0  0  0  0  0
   -2.5019    6.5848   -6.9040 S   0  0  0  0  0  0  0  0  0  0  0  0
   -1.2248    7.9220   -4.8998 C   0  0  0  0  0  0  0  0  0  0  0  0
   -0.9432    8.0537   -3.5673 C   0  0  0  0  0  0  0  0  0  0  0  0
    0.4186    7.8254   -3.2570 C   0  0  0  0  0  0  0  0  0  0  0  0
    0.9745    7.5739   -1.9910 C   0  0  0  0  0  0  0  0  0  0  0  0
    0.1841    7.6802   -0.7721 C   0  0  0  0  0  0  0  0  0  0  0  0
    0.6692    8.7374    0.5189 S   0  0  0  0  0  0  0  0  0  0  0  0
   -0.6793    8.2822    1.5027 C   0  0  0  0  0  0  0  0  0  0  0  0
   -0.9164    8.9113    2.8313 C   0  0  0  0  0  0  0  0  0  0  0  0
   -1.7541   10.1847    2.6915 C   0  0  0  0  0  0  0  0  0  0  0  0
   -1.4519    7.3671    0.8525 C   0  0  0  0  0  0  0  0  0  0  0  0
   -2.8789    6.6788    1.5127 Cl  0  0  0  0  0  0  0  0  0  0  0  0
   -0.9619    7.0177   -0.4348 C   0  0  0  0  0  0  0  0  0  0  0  0
   -1.7117    5.8238   -1.4187 Cl  0  0  0  0  0  0  0  0  0  0  0  0
    2.2790    7.1032   -1.9580 C   0  0  0  0  0  0  0  0  0  0  0  0
    3.0734    6.9462   -3.1193 C   0  0  0  0  0  0  0  0  0  0  0  0
    2.5425    7.2642   -4.3847 C   0  0  0  0  0  0  0  0  0  0  0  0
    3.3107    7.0978   -5.6061 C   0  0  0  0  0  0  0  0  0  0  0  0
    4.1964    5.6389   -5.9479 S   0  0  0  0  0  0  0  0  0  0  0  0
    4.7279    6.2199   -7.4877 C   0  0  0  0  0  0  0  0  0  0  0  0
    5.6221    5.4095   -8.3610 C   0  0  0  0  0  0  0  0  0  0  0  0
    5.3592    3.9134   -8.2336 C   0  0  0  0  0  0  0  0  0  0  0  0
    4.2395    7.4732   -7.7099 C   0  0  0  0  0  0  0  0  0  0  0  0
    3.4335    7.9715   -6.6521 C   0  0  0  0  0  0  0  0  0  0  0  0
    2.7681    9.5500   -6.6755 Cl  0  0  0  0  0  0  0  0  0  0  0  0
    4.5602    8.3856   -9.1283 Cl  0  0  0  0  0  0  0  0  0  0  0  0
    1.2079    7.6458   -4.4218 C   0  0  0  0  0  0  0  0  0  0  0  0
    0.2304    7.7392   -5.8591 S   0  0  0  0  0  0  0  0  0  0  0  0
    4.3086    6.3239   -2.8263 C   0  0  0  0  0  0  0  0  0  0  0  0
    4.4355    5.9423   -1.5213 C   0  0  0  0  0  0  0  0  0  0  0  0
    3.0738    6.4543   -0.5490 S   0  0  0  0  0  0  0  0  0  0  0  0
    5.4477    5.0666   -1.0200 C   0  0  0  0  0  0  0  0  0  0  0  0
    6.5916    4.7080   -1.6710 C   0  0  0  0  0  0  0  0  0  0  0  0
    7.2778    3.6315   -1.0602 C   0  0  0  0  0  0  0  0  0  0  0  0
    8.4195    2.9616   -1.5306 C   0  0  0  0  0  0  0  0  0  0  0  0
    9.0054    3.3038   -2.8159 C   0  0  0  0  0  0  0  0  0  0  0  0
   10.6989    3.6581   -2.9836 S   0  0  0  0  0  0  0  0  0  0  0  0
   10.5537    3.9347   -4.6847 C   0  0  0  0  0  0  0  0  0  0  0  0
   11.7202    4.3605   -5.5066 C   0  0  0  0  0  0  0  0  0  0  0  0
   11.7923    5.8862   -5.6072 C   0  0  0  0  0  0  0  0  0  0  0  0
    9.2614    3.7633   -5.0829 C   0  0  0  0  0  0  0  0  0  0  0  0
    8.7326    3.9511   -6.7022 Cl  0  0  0  0  0  0  0  0  0  0  0  0
    8.3805    3.4007   -4.0303 C   0  0  0  0  0  0  0  0  0  0  0  0
    6.7204    3.0452   -4.3044 Cl  0  0  0  0  0  0  0  0  0  0  0  0
    8.9251    1.9450   -0.7299 C   0  0  0  0  0  0  0  0  0  0  0  0
    8.3062    1.5377    0.4755 C   0  0  0  0  0  0  0  0  0  0  0  0
    7.1220    2.1585    0.9051 C   0  0  0  0  0  0  0  0  0  0  0  0
    6.4223    1.6959    2.0933 C   0  0  0  0  0  0  0  0  0  0  0  0
    6.0237    2.7821    3.3895 S   0  0  0  0  0  0  0  0  0  0  0  0
    5.3064    1.5195    4.3281 C   0  0  0  0  0  0  0  0  0  0  0  0
    4.6872    1.7945    5.6540 C   0  0  0  0  0  0  0  0  0  0  0  0
    3.1765    2.0015    5.5217 C   0  0  0  0  0  0  0  0  0  0  0  0
    5.3614    0.3350    3.6552 C   0  0  0  0  0  0  0  0  0  0  0  0
    5.9969    0.4297    2.3885 C   0  0  0  0  0  0  0  0  0  0  0  0
    6.1383   -0.9061    1.3220 Cl  0  0  0  0  0  0  0  0  0  0  0  0
    4.7448   -1.1414    4.2744 Cl  0  0  0  0  0  0  0  0  0  0  0  0
    6.6470    3.2129    0.1365 C   0  0  0  0  0  0  0  0  0  0  0  0
    5.2007    4.1340    0.4424 S   0  0  0  0  0  0  0  0  0  0  0  0
    9.0321    0.4853    1.1075 C   0  0  0  0  0  0  0  0  0  0  0  0
   10.1163    0.1018    0.4044 C   0  0  0  0  0  0  0  0  0  0  0  0
   10.3397    0.9868   -1.0657 S   0  0  0  0  0  0  0  0  0  0  0  0
    3.0970   -8.0093   12.4013 H   0  0  0  0  0  0  0  0  0  0  0  0
    3.9451   -6.5815   10.3935 H   0  0  0  0  0  0  0  0  0  0  0  0
    6.1606   -2.1173    7.1007 H   0  0  0  0  0  0  0  0  0  0  0  0
    6.2191   -2.5207    8.8227 H   0  0  0  0  0  0  0  0  0  0  0  0
    3.9017   -1.0909    7.4350 H   0  0  0  0  0  0  0  0  0  0  0  0
    5.1049   -0.3328    8.4901 H   0  0  0  0  0  0  0  0  0  0  0  0
    3.9643   -1.5094    9.1483 H   0  0  0  0  0  0  0  0  0  0  0  0
   -5.3337   -9.4402    9.9259 H   0  0  0  0  0  0  0  0  0  0  0  0
   -5.0669  -11.1903   10.0342 H   0  0  0  0  0  0  0  0  0  0  0  0
   -5.0309  -11.3282    7.5400 H   0  0  0  0  0  0  0  0  0  0  0  0
   -5.2879   -9.5833    7.4374 H   0  0  0  0  0  0  0  0  0  0  0  0
   -6.5468  -10.6251    8.1119 H   0  0  0  0  0  0  0  0  0  0  0  0
   -1.6974   -8.2585    6.2979 H   0  0  0  0  0  0  0  0  0  0  0  0
    0.5123   -5.6335    2.9769 H   0  0  0  0  0  0  0  0  0  0  0  0
    4.6381   -3.4853   -0.0594 H   0  0  0  0  0  0  0  0  0  0  0  0
    4.5372   -5.2564   -0.0187 H   0  0  0  0  0  0  0  0  0  0  0  0
    4.2418   -3.4139    2.4046 H   0  0  0  0  0  0  0  0  0  0  0  0
    5.6635   -4.3864    2.0202 H   0  0  0  0  0  0  0  0  0  0  0  0
    4.1409   -5.1765    2.4454 H   0  0  0  0  0  0  0  0  0  0  0  0
   -8.1447   -7.5352    4.3569 H   0  0  0  0  0  0  0  0  0  0  0  0
   -8.9005   -8.5935    3.1491 H   0  0  0  0  0  0  0  0  0  0  0  0
  -10.3033   -6.5837    3.5695 H   0  0  0  0  0  0  0  0  0  0  0  0
   -8.9591   -5.5352    3.1041 H   0  0  0  0  0  0  0  0  0  0  0  0
   -9.7113   -6.5912    1.9049 H   0  0  0  0  0  0  0  0  0  0  0  0
   -5.4024   -5.5530   -0.9714 H   0  0  0  0  0  0  0  0  0  0  0  0
   -6.2907   -3.4133   -2.2045 H   0  0  0  0  0  0  0  0  0  0  0  0
  -11.6476   -2.2634   -0.6178 H   0  0  0  0  0  0  0  0  0  0  0  0
  -11.6441   -3.4569   -1.9296 H   0  0  0  0  0  0  0  0  0  0  0  0
  -11.2516   -4.5595    0.2595 H   0  0  0  0  0  0  0  0  0  0  0  0
   -9.8343   -3.5422    0.5340 H   0  0  0  0  0  0  0  0  0  0  0  0
   -9.8319   -4.7229   -0.7810 H   0  0  0  0  0  0  0  0  0  0  0  0
   -0.0629   -1.7183   -9.9051 H   0  0  0  0  0  0  0  0  0  0  0  0
    0.4598   -1.6879   -8.2097 H   0  0  0  0  0  0  0  0  0  0  0  0
   -0.0565   -4.1200   -8.0082 H   0  0  0  0  0  0  0  0  0  0  0  0
   -0.5644   -4.1538   -9.6999 H   0  0  0  0  0  0  0  0  0  0  0  0
    1.1221   -3.8224   -9.2917 H   0  0  0  0  0  0  0  0  0  0  0  0
   -4.8256    0.8445   -7.6100 H   0  0  0  0  0  0  0  0  0  0  0  0
   -6.0861    7.0990   -3.2348 H   0  0  0  0  0  0  0  0  0  0  0  0
   -7.2005    5.7658   -3.5933 H   0  0  0  0  0  0  0  0  0  0  0  0
   -7.2575    8.5245   -4.9253 H   0  0  0  0  0  0  0  0  0  0  0  0
   -8.3830    7.9606   -3.6843 H   0  0  0  0  0  0  0  0  0  0  0  0
   -8.3674    7.1966   -5.2779 H   0  0  0  0  0  0  0  0  0  0  0  0
   -7.6277    3.7865   -5.1470 H   0  0  0  0  0  0  0  0  0  0  0  0
   -3.9062    8.2154   -3.9441 H   0  0  0  0  0  0  0  0  0  0  0  0
   -1.7005    8.1986   -2.8206 H   0  0  0  0  0  0  0  0  0  0  0  0
   -1.4417    8.1978    3.4692 H   0  0  0  0  0  0  0  0  0  0  0  0
    0.0423    9.1545    3.2918 H   0  0  0  0  0  0  0  0  0  0  0  0
   -1.9193   10.6324    3.6677 H   0  0  0  0  0  0  0  0  0  0  0  0
   -2.7184    9.9532    2.2465 H   0  0  0  0  0  0  0  0  0  0  0  0
   -1.2420   10.9053    2.0584 H   0  0  0  0  0  0  0  0  0  0  0  0
    5.4810    5.7358   -9.3938 H   0  0  0  0  0  0  0  0  0  0  0  0
    6.6632    5.6145   -8.0900 H   0  0  0  0  0  0  0  0  0  0  0  0
    5.5357    3.5849   -7.2119 H   0  0  0  0  0  0  0  0  0  0  0  0
    4.3301    3.6823   -8.4977 H   0  0  0  0  0  0  0  0  0  0  0  0
    6.0221    3.3600   -8.8936 H   0  0  0  0  0  0  0  0  0  0  0  0
    5.0485    6.0977   -3.5698 H   0  0  0  0  0  0  0  0  0  0  0  0
    6.9370    5.1982   -2.5612 H   0  0  0  0  0  0  0  0  0  0  0  0
   12.6370    3.9801   -5.0543 H   0  0  0  0  0  0  0  0  0  0  0  0
   11.6205    3.9355   -6.5077 H   0  0  0  0  0  0  0  0  0  0  0  0
   11.8949    6.3257   -4.6179 H   0  0  0  0  0  0  0  0  0  0  0  0
   10.8894    6.2765   -6.0697 H   0  0  0  0  0  0  0  0  0  0  0  0
   12.6471    6.1798   -6.2102 H   0  0  0  0  0  0  0  0  0  0  0  0
    5.1426    2.6870    6.0852 H   0  0  0  0  0  0  0  0  0  0  0  0
    4.8805    0.9471    6.3143 H   0  0  0  0  0  0  0  0  0  0  0  0
    2.9666    2.8479    4.8725 H   0  0  0  0  0  0  0  0  0  0  0  0
    2.7394    2.1922    6.4983 H   0  0  0  0  0  0  0  0  0  0  0  0
    2.7103    1.1158    5.0980 H   0  0  0  0  0  0  0  0  0  0  0  0
    8.7505    0.0549    2.0507 H   0  0  0  0  0  0  0  0  0  0  0  0
   10.8272   -0.6613    0.6541 H   0  0  0  0  0  0  0  0  0  0  0  0
  1  2  2  0  0  0  0
  2  3  1  0  0  0  0
  3  4  2  0  0  0  0
  4  5  1  0  0  0  0
  5  6  1  0  0  0  0
  6  7  1  0  0  0  0
  7  8  1  0  0  0  0
  8  9  1  0  0  0  0
  7 10  2  0  0  0  0
 10 11  1  0  0  0  0
 10 12  1  0  0  0  0
 12 13  1  0  0  0  0
  4 14  1  0  0  0  0
 14 15  2  0  0  0  0
 15 16  1  0  0  0  0
 16 17  1  0  0  0  0
 17 18  1  0  0  0  0
 18 19  1  0  0  0  0
 19 20  1  0  0  0  0
 20 21  1  0  0  0  0
 19 22  2  0  0  0  0
 22 23  1  0  0  0  0
 23 24  1  0  0  0  0
 22 25  1  0  0  0  0
 16 26  2  0  0  0  0
 26 27  1  0  0  0  0
 15 28  1  0  0  0  0
 28 29  2  0  0  0  0
 29 30  1  0  0  0  0
 29 31  1  0  0  0  0
 31 32  2  0  0  0  0
 32 33  1  0  0  0  0
 33 34  2  0  0  0  0
 34 35  1  0  0  0  0
 35 36  1  0  0  0  0
 36 37  1  0  0  0  0
 37 38  1  0  0  0  0
 38 39  1  0  0  0  0
 37 40  2  0  0  0  0
 40 41  1  0  0  0  0
 40 42  1  0  0  0  0
 42 43  1  0  0  0  0
 34 44  1  0  0  0  0
 44 45  2  0  0  0  0
 45 46  1  0  0  0  0
 46 47  1  0  0  0  0
 47 48  1  0  0  0  0
 48 49  1  0  0  0  0
 49 50  1  0  0  0  0
 50 51  1  0  0  0  0
 49 52  2  0  0  0  0
 52 53  1  0  0  0  0
 53 54  1  0  0  0  0
 52 55  1  0  0  0  0
 46 56  2  0  0  0  0
 56 57  1  0  0  0  0
 45 58  1  0  0  0  0
 58 59  2  0  0  0  0
 59 60  1  0  0  0  0
 59 61  1  0  0  0  0
 61 62  2  0  0  0  0
 62 63  1  0  0  0  0
 63 64  2  0  0  0  0
 64 65  1  0  0  0  0
 65 66  1  0  0  0  0
 66 67  1  0  0  0  0
 67 68  1  0  0  0  0
 68 69  1  0  0  0  0
 67 70  2  0  0  0  0
 70 71  1  0  0  0  0
 70 72  1  0  0  0  0
 72 73  1  0  0  0  0
 64 74  1  0  0  0  0
 74 75  2  0  0  0  0
 75 76  1  0  0  0  0
 76 77  1  0  0  0  0
 77 78  1  0  0  0  0
 78 79  1  0  0  0  0
 79 80  1  0  0  0  0
 80 81  1  0  0  0  0
 79 82  2  0  0  0  0
 82 83  1  0  0  0  0
 83 84  1  0  0  0  0
 82 85  1  0  0  0  0
 76 86  2  0  0  0  0
 86 87  1  0  0  0  0
 75 88  1  0  0  0  0
 88 89  2  0  0  0  0
 89 90  1  0  0  0  0
 89 91  1  0  0  0  0
 91 92  1  0  0  0  0
 92 93  1  0  0  0  0
 93 94  1  0  0  0  0
 94 95  2  0  0  0  0
 95 96  1  0  0  0  0
 96 97  1  0  0  0  0
 97 98  1  0  0  0  0
 96 99  1  0  0  0  0
 99100  1  0  0  0  0
 95101  1  0  0  0  0
101102  2  0  0  0  0
102103  1  0  0  0  0
102104  1  0  0  0  0
104105  2  0  0  0  0
105106  1  0  0  0  0
106107  2  0  0  0  0
107108  1  0  0  0  0
108109  1  0  0  0  0
109110  1  0  0  0  0
110111  1  0  0  0  0
111112  1  0  0  0  0
110113  2  0  0  0  0
113114  1  0  0  0  0
113115  1  0  0  0  0
115116  1  0  0  0  0
107117  1  0  0  0  0
117118  2  0  0  0  0
118119  1  0  0  0  0
119120  1  0  0  0  0
120121  1  0  0  0  0
121122  1  0  0  0  0
122123  1  0  0  0  0
123124  1  0  0  0  0
122125  2  0  0  0  0
125126  1  0  0  0  0
126127  1  0  0  0  0
125128  1  0  0  0  0
119129  2  0  0  0  0
129130  1  0  0  0  0
118131  1  0  0  0  0
131132  2  0  0  0  0
132133  1  0  0  0  0
132134  1  0  0  0  0
134135  2  0  0  0  0
135136  1  0  0  0  0
136137  2  0  0  0  0
137138  1  0  0  0  0
138139  1  0  0  0  0
139140  1  0  0  0  0
140141  1  0  0  0  0
141142  1  0  0  0  0
140143  2  0  0  0  0
143144  1  0  0  0  0
143145  1  0  0  0  0
145146  1  0  0  0  0
137147  1  0  0  0  0
147148  2  0  0  0  0
148149  1  0  0  0  0
149150  1  0  0  0  0
150151  1  0  0  0  0
151152  1  0  0  0  0
152153  1  0  0  0  0
153154  1  0  0  0  0
152155  2  0  0  0  0
155156  1  0  0  0  0
156157  1  0  0  0  0
155158  1  0  0  0  0
149159  2  0  0  0  0
159160  1  0  0  0  0
148161  1  0  0  0  0
161162  2  0  0  0  0
162163  1  0  0  0  0
 27  1  1  0  0  0  0
 57 31  1  0  0  0  0
 87 61  1  0  0  0  0
100 91  2  0  0  0  0
130104  1  0  0  0  0
160134  1  0  0  0  0
 26  3  1  0  0  0  0
 56 33  1  0  0  0  0
 86 63  1  0  0  0  0
 99 93  2  0  0  0  0
129106  1  0  0  0  0
159136  1  0  0  0  0
 12  5  2  0  0  0  0
 30 14  1  0  0  0  0
 42 35  2  0  0  0  0
 60 44  1  0  0  0  0
 72 65  2  0  0  0  0
 90 74  1  0  0  0  0
103 94  1  0  0  0  0
115108  2  0  0  0  0
133117  1  0  0  0  0
145138  2  0  0  0  0
163147  1  0  0  0  0
 23 17  2  0  0  0  0
 53 47  2  0  0  0  0
 83 77  2  0  0  0  0
126120  2  0  0  0  0
156150  2  0  0  0  0
  1164  1  0  0  0  0
  2165  1  0  0  0  0
  8166  1  0  0  0  0
  8167  1  0  0  0  0
  9168  1  0  0  0  0
  9169  1  0  0  0  0
  9170  1  0  0  0  0
 20171  1  0  0  0  0
 20172  1  0  0  0  0
 21173  1  0  0  0  0
 21174  1  0  0  0  0
 21175  1  0  0  0  0
 28176  1  0  0  0  0
 32177  1  0  0  0  0
 38178  1  0  0  0  0
 38179  1  0  0  0  0
 39180  1  0  0  0  0
 39181  1  0  0  0  0
 39182  1  0  0  0  0
 50183  1  0  0  0  0
 50184  1  0  0  0  0
 51185  1  0  0  0  0
 51186  1  0  0  0  0
 51187  1  0  0  0  0
 58188  1  0  0  0  0
 62189  1  0  0  0  0
 68190  1  0  0  0  0
 68191  1  0  0  0  0
 69192  1  0  0  0  0
 69193  1  0  0  0  0
 69194  1  0  0  0  0
 80195  1  0  0  0  0
 80196  1  0  0  0  0
 81197  1  0  0  0  0
 81198  1  0  0  0  0
 81199  1  0  0  0  0
 88200  1  0  0  0  0
 97201  1  0  0  0  0
 97202  1  0  0  0  0
 98203  1  0  0  0  0
 98204  1  0  0  0  0
 98205  1  0  0  0  0
100206  1  0  0  0  0
101207  1  0  0  0  0
105208  1  0  0  0  0
111209  1  0  0  0  0
111210  1  0  0  0  0
112211  1  0  0  0  0
112212  1  0  0  0  0
112213  1  0  0  0  0
123214  1  0  0  0  0
123215  1  0  0  0  0
124216  1  0  0  0  0
124217  1  0  0  0  0
124218  1  0  0  0  0
131219  1  0  0  0  0
135220  1  0  0  0  0
141221  1  0  0  0  0
141222  1  0  0  0  0
142223  1  0  0  0  0
142224  1  0  0  0  0
142225  1  0  0  0  0
153226  1  0  0  0  0
153227  1  0  0  0  0
154228  1  0  0  0  0
154229  1  0  0  0  0
154230  1  0  0  0  0
161231  1  0  0  0  0
162232  1  0  0  0  0
M  END
