230

C          3.63510       -6.81870       11.37800
C          3.94850       -5.92570       10.41740
C          2.87180       -5.68460        9.51530
C          2.85870       -4.86390        8.37690
C          3.95660       -3.96560        8.06490
S          4.64220       -3.87230        6.47010
C          5.70900       -2.58740        6.91860
C          6.57610       -1.91870        5.91170
C          5.81320       -0.78000        5.23160
C          5.53190       -2.25900        8.22950
Cl         6.40420       -1.01560        9.02730
C          4.54360       -3.04040        8.88500
Cl         4.08110       -2.75950       10.51380
C          1.72330       -4.91670        7.57750
C          0.57810       -5.67930        7.91030
C          0.56760       -6.45260        9.08370
C         -0.59640       -7.23520        9.46290
S         -1.33050       -8.35520        8.35170
C         -2.52630       -8.84050        9.50370
C         -3.59540       -9.81160        9.14270
C         -4.76600       -9.10120        8.45780
C         -2.35900       -8.16010       10.67250
C         -1.26340       -7.25520       10.65670
Cl        -0.89850       -6.23610       11.98450
Cl        -3.36240       -8.36450       12.04910
C          1.73010       -6.45300        9.84760
S          2.02030       -7.42400       11.26240
C         -0.46290       -5.50650        6.96250
C         -0.12650       -4.68220        5.93220
S          1.49520       -4.03980        6.09220
C         -0.91170       -4.32500        4.79650
C         -0.48200       -3.69540        3.66690
C         -1.50240       -3.50200        2.70500
C         -1.38860       -2.95020        1.41820
C         -0.11570       -2.48940        0.88700
S          1.29510       -3.50940        0.90380
C          2.26590       -2.32730        0.09130
C          3.70320       -2.58520       -0.19850
C          4.52640       -2.64210        1.08920
C          1.52740       -1.21190       -0.16390
Cl         2.12510        0.17160       -0.98160
C          0.18200       -1.29520        0.28860
Cl        -0.89240        0.03530        0.16830
C         -2.55500       -2.87810        0.66540
C         -3.82630       -3.26420        1.15810
C         -3.93360       -3.83190        2.43850
C         -5.20720       -4.30400        2.95740
S         -6.16170       -5.45590        2.06940
C         -7.36900       -5.52850        3.30680
C         -8.53370       -6.44960        3.19950
C         -8.19500       -7.82370        3.78300
C         -7.03710       -4.70410        4.34010
C         -5.81500       -4.00570        4.14510
Cl        -5.22930       -2.84870        5.26540
Cl        -7.99460       -4.50780        5.75020
C         -2.76090       -3.95640        3.17320
S         -2.62140       -4.69400        4.74370
C         -4.86510       -2.97540        0.23180
C         -4.40720       -2.46550       -0.94210
S         -2.66010       -2.32440       -0.97480
C         -5.10020       -1.87340       -2.05250
C         -6.12090       -0.97140       -2.01060
C         -6.29960       -0.27280       -3.23400
C         -6.99690        0.93620       -3.41960
C         -7.80930        1.50390       -2.35020
S         -9.25350        0.71350       -1.79770
C         -9.58770        1.96040       -0.64350
C        -10.81810        1.93080        0.19430
C        -11.99600        2.57070       -0.54440
C         -8.62580        2.92380       -0.69770
Cl        -8.61380        4.32120        0.29660
C         -7.61100        2.66460       -1.65840
Cl        -6.24280        3.68050       -1.85300
C         -6.75920        1.63400       -4.59300
C         -5.92470        1.12640       -5.62350
C         -5.22980       -0.08400       -5.44860
C         -4.18110       -0.49660       -6.36600
S         -2.90960        0.61490       -6.80430
C         -2.06460       -0.58800       -7.71770
C         -0.77990       -0.27430       -8.40180
C         -0.77660        1.12230       -9.01570
C         -2.73770       -1.77270       -7.67370
C         -3.92930       -1.72860       -6.89970
Cl        -4.96980       -3.07730       -6.72510
Cl        -2.21340       -3.19990       -8.46800
C         -5.41640       -0.73890       -4.23910
S         -4.40300       -2.02220       -3.64920
C         -5.69820        2.07880       -6.63360
C         -6.18400        3.32780       -6.32460
S         -7.19260        3.30080       -4.89920
C         -5.52110        4.51570       -6.76130
C         -5.33440        5.55180       -5.81100
C         -4.04070        6.15620       -5.65040
N         -3.84730        7.03130       -4.65360
C         -4.83230        7.28690       -3.83230
C         -6.08590        6.66720       -3.97000
N         -6.31850        5.82930       -4.94600
C         -2.96880        5.72360       -6.47350
C         -3.31840        5.07370       -7.68250
C         -4.60610        4.47040       -7.84550
N         -4.87770        3.77220       -8.95500
C         -3.94070        3.63580       -9.85820
C         -2.65790        4.17710       -9.67460
N         -2.37330        4.88340       -8.61250
C         -1.63250        5.58920       -5.99820
C         -1.16780        5.84790       -4.73330
C          0.07850        5.24900       -4.45060
C          0.74230        5.18170       -3.20700
C          0.29790        5.97900       -2.08110
S          0.08710        5.28510       -0.50000
C         -0.41560        6.79400        0.18140
C         -0.72830        6.91150        1.63210
C          0.55240        6.89410        2.46950
C         -0.40550        7.77040       -0.77010
Cl        -0.83270        9.40540       -0.47120
C         -0.00860        7.31360       -2.05500
Cl         0.15220        8.37170       -3.39550
C          1.80710        4.29430       -3.11240
C          2.27180        3.53420       -4.21400
C          1.64300        3.64580       -5.46760
C          2.06330        2.81550       -6.58560
S          2.50080        3.50300       -8.11800
C          2.86170        1.95210       -8.79670
C          3.38830        1.81440      -10.18300
C          4.91430        1.93180      -10.20320
C          2.64910        0.96980       -7.87580
C          2.18500        1.45360       -6.62390
Cl         1.74280        0.40550       -5.33200
Cl         2.90370       -0.70110       -8.18320
C          0.56200        4.50590       -5.55820
S         -0.48180        4.66360       -6.94660
C          3.35140        2.69490       -3.86030
C          3.68830        2.76480       -2.54020
S          2.72240        3.93810       -1.67100
C          4.63270        1.93370       -1.87100
C          5.02110        1.95140       -0.56520
C          5.90530        0.89560       -0.22640
C          6.50160        0.61670        1.01450
C          6.15750        1.38990        2.19600
S          7.36680        2.15580        3.18250
C          6.18500        2.77190        4.28610
C          6.57680        3.62300        5.44270
C          6.63470        5.09960        5.04370
C          4.93200        2.40530        3.89400
Cl         3.50240        2.82150        4.74710
C          4.91130        1.61860        2.71160
Cl         3.46260        0.96290        2.06260
C          7.39460       -0.44730        1.06250
C          7.67200       -1.27490       -0.05170
C          7.05530       -1.01490       -1.28380
C          7.28320       -1.83910       -2.45970
S          5.94320       -2.52670       -3.32910
C          6.97950       -3.23470       -4.52060
C          6.40870       -3.97550       -5.67870
C          5.69560       -3.02040       -6.63820
C          8.28290       -2.94700       -4.24580
C          8.45960       -2.16070       -3.07420
Cl         9.99970       -1.61220       -2.55070
Cl         9.60700       -3.46810       -5.20630
C          6.19020        0.06970       -1.33970
S          5.35620        0.61070       -2.76520
C          8.54970       -2.34520        0.29070
C          8.92890       -2.31650        1.58390
S          8.24310       -1.00410        2.47830
H          4.25990       -7.17710       12.17270
H          4.91330       -5.46280       10.32460
H          7.46000       -1.51760        6.41020
H          6.89370       -2.64130        5.15910
H          6.45540       -0.29330        4.50470
H          5.49520       -0.04510        5.96660
H          4.93390       -1.16510        4.72110
H         -3.18700      -10.56890        8.47130
H         -3.94630      -10.30110       10.05280
H         -4.42940       -8.60870        7.54840
H         -5.19220       -8.35300        9.12120
H         -5.53930       -9.81980        8.20030
H         -1.42530       -5.97980        7.03220
H          0.53920       -3.38950        3.52940
H          3.80250       -3.53340       -0.73160
H          4.07620       -1.78950       -0.84530
H          4.48310       -1.68810        1.60890
H          5.56440       -2.86360        0.85710
H          4.14250       -3.41680        1.74910
H         -9.37440       -6.01870        3.74680
H         -8.81510       -6.55810        2.15100
H         -7.92400       -7.73050        4.83160
H         -7.35960       -8.26620        3.24570
H         -9.05300       -8.48530        3.70160
H         -5.90730       -3.14090        0.43390
H         -6.65590       -0.73330       -1.10900
H        -10.62600        2.47870        1.11880
H        -11.06300        0.89690        0.44330
H        -11.76860        3.60470       -0.79070
H        -12.20180        2.03100       -1.46570
H        -12.88480        2.54820        0.08020
H         -0.60780       -1.02870       -9.17230
H          0.03410       -0.35030       -7.67570
H         -1.59560        1.22600       -9.72390
H          0.16020        1.29950       -9.53700
H         -0.88850        1.88140       -8.24390
H         -5.08640        1.90020       -7.49660
H         -4.64130        8.02180       -3.06260
H         -6.90970        6.88270       -3.30490
H         -4.21210        3.10400      -10.75940
H         -1.87230        4.06190      -10.40730
H         -1.75750        6.38500       -4.01360
H         -1.36750        6.07960        1.93460
H         -1.26740        7.84540        1.79920
H          1.09280        5.96400        2.30990
H          1.19730        7.72370        2.19050
H          0.30940        6.98090        3.52520
H          3.09380        0.83920      -10.57630
H          2.95610        2.59350      -10.81290
H          5.28350        1.82550      -11.21960
H          5.35960        1.15470       -9.58730
H          5.22250        2.90070       -9.81840
H          3.86120        2.04890       -4.55200
H          4.68420        2.70060        0.12810
H          5.84250        3.48960        6.23950
H          7.55410        3.30610        5.80990
H          6.91550        5.70650        5.90000
H          7.36730        5.24900        4.25420
H          5.66360        5.43100        4.68480
H          5.69670       -4.72180       -5.31940
H          7.21890       -4.48950       -6.19820
H          4.88640       -2.50570       -6.12550
H          5.28140       -3.57280       -7.47730
H          6.39200       -2.27770       -7.02000
H          8.86630       -3.09670       -0.40830
H          9.58260       -2.99610        2.09460
