
  xtb     03012222063D
 energy: -409.278314348781 gnorm: 0.000215110217 xtb: 6.4.1 (unknown)
206231  0     0  0            999 V2000
   -7.9223   -5.9410   16.3931 C   0  0  0  0  0  0  0  0  0  0  0  0
   -7.0804   -6.5560   15.5378 C   0  0  0  0  0  0  0  0  0  0  0  0
   -7.1555   -6.0301   14.2154 C   0  0  0  0  0  0  0  0  0  0  0  0
   -6.4031   -6.3965   13.0889 C   0  0  0  0  0  0  0  0  0  0  0  0
   -5.3326   -7.3776   13.1729 C   0  0  0  0  0  0  0  0  0  0  0  0
   -5.2619   -8.7437   12.1012 S   0  0  0  0  0  0  0  0  0  0  0  0
   -3.7846   -9.3142   12.8005 C   0  0  0  0  0  0  0  0  0  0  0  0
   -3.0972  -10.5206   12.2639 C   0  0  0  0  0  0  0  0  0  0  0  0
   -2.3472  -10.1877   10.9721 C   0  0  0  0  0  0  0  0  0  0  0  0
   -3.3782   -8.4783   13.7971 C   0  0  0  0  0  0  0  0  0  0  0  0
   -1.9482   -8.7066   14.7185 Cl  0  0  0  0  0  0  0  0  0  0  0  0
   -4.2555   -7.3817   14.0146 C   0  0  0  0  0  0  0  0  0  0  0  0
   -3.9284   -6.1520   15.1668 Cl  0  0  0  0  0  0  0  0  0  0  0  0
   -6.6985   -5.7509   11.8958 C   0  0  0  0  0  0  0  0  0  0  0  0
   -7.6773   -4.7336   11.7926 C   0  0  0  0  0  0  0  0  0  0  0  0
   -8.4166   -4.3507   12.9243 C   0  0  0  0  0  0  0  0  0  0  0  0
   -9.4174   -3.2995   12.8384 C   0  0  0  0  0  0  0  0  0  0  0  0
   -9.0184   -1.7344   12.1914 S   0  0  0  0  0  0  0  0  0  0  0  0
  -10.6304   -1.1440   12.4083 C   0  0  0  0  0  0  0  0  0  0  0  0
  -11.0133    0.2209   11.9540 C   0  0  0  0  0  0  0  0  0  0  0  0
  -11.2162    0.2512   10.4369 C   0  0  0  0  0  0  0  0  0  0  0  0
  -11.4192   -2.1143   12.9494 C   0  0  0  0  0  0  0  0  0  0  0  0
  -10.7350   -3.3349   13.2005 C   0  0  0  0  0  0  0  0  0  0  0  0
  -11.5333   -4.7242   13.8067 Cl  0  0  0  0  0  0  0  0  0  0  0  0
  -13.0856   -1.9085   13.3033 Cl  0  0  0  0  0  0  0  0  0  0  0  0
   -8.1363   -5.0133   14.1136 C   0  0  0  0  0  0  0  0  0  0  0  0
   -8.8751   -4.7004   15.6577 S   0  0  0  0  0  0  0  0  0  0  0  0
   -7.7688   -4.2230   10.4740 C   0  0  0  0  0  0  0  0  0  0  0  0
   -6.8923   -4.7994    9.6049 C   0  0  0  0  0  0  0  0  0  0  0  0
   -5.9057   -6.0291   10.3708 S   0  0  0  0  0  0  0  0  0  0  0  0
   -6.7060   -4.4874    8.2275 C   0  0  0  0  0  0  0  0  0  0  0  0
   -5.8795   -5.1089    7.3386 C   0  0  0  0  0  0  0  0  0  0  0  0
   -5.8920   -4.5241    6.0506 C   0  0  0  0  0  0  0  0  0  0  0  0
   -5.1017   -4.8679    4.9392 C   0  0  0  0  0  0  0  0  0  0  0  0
   -4.2063   -6.0120    4.9874 C   0  0  0  0  0  0  0  0  0  0  0  0
   -4.7991   -7.5828    5.4433 S   0  0  0  0  0  0  0  0  0  0  0  0
   -3.2421   -8.3160    5.2560 C   0  0  0  0  0  0  0  0  0  0  0  0
   -3.0303   -9.7553    5.5721 C   0  0  0  0  0  0  0  0  0  0  0  0
   -3.0788   -9.9952    7.0828 C   0  0  0  0  0  0  0  0  0  0  0  0
   -2.3285   -7.3840    4.8659 C   0  0  0  0  0  0  0  0  0  0  0  0
   -0.6704   -7.7252    4.5841 Cl  0  0  0  0  0  0  0  0  0  0  0  0
   -2.8700   -6.0789    4.7079 C   0  0  0  0  0  0  0  0  0  0  0  0
   -1.8942   -4.7312    4.3013 Cl  0  0  0  0  0  0  0  0  0  0  0  0
   -5.2057   -4.0643    3.8131 C   0  0  0  0  0  0  0  0  0  0  0  0
   -6.0706   -2.9421    3.7540 C   0  0  0  0  0  0  0  0  0  0  0  0
   -6.8864   -2.6114    4.8548 C   0  0  0  0  0  0  0  0  0  0  0  0
   -7.7711   -1.4601    4.8266 C   0  0  0  0  0  0  0  0  0  0  0  0
   -7.1788    0.1119    4.3745 S   0  0  0  0  0  0  0  0  0  0  0  0
   -8.7200    0.8570    4.6339 C   0  0  0  0  0  0  0  0  0  0  0  0
   -8.9227    2.3079    4.3679 C   0  0  0  0  0  0  0  0  0  0  0  0
   -8.7889    2.6180    2.8761 C   0  0  0  0  0  0  0  0  0  0  0  0
   -9.6301   -0.0717    5.0407 C   0  0  0  0  0  0  0  0  0  0  0  0
   -9.0963   -1.3839    5.1563 C   0  0  0  0  0  0  0  0  0  0  0  0
  -10.0699   -2.7301    5.5761 Cl  0  0  0  0  0  0  0  0  0  0  0  0
  -11.2718    0.2814    5.3962 Cl  0  0  0  0  0  0  0  0  0  0  0  0
   -6.7699   -3.4127    5.9824 C   0  0  0  0  0  0  0  0  0  0  0  0
   -7.5652   -3.1431    7.5084 S   0  0  0  0  0  0  0  0  0  0  0  0
   -5.9765   -2.2802    2.5126 C   0  0  0  0  0  0  0  0  0  0  0  0
   -5.0721   -2.8436    1.6489 C   0  0  0  0  0  0  0  0  0  0  0  0
   -4.3244   -4.2754    2.3236 S   0  0  0  0  0  0  0  0  0  0  0  0
   -4.6309   -2.3350    0.3865 C   0  0  0  0  0  0  0  0  0  0  0  0
   -3.5653   -2.9898   -0.2728 C   0  0  0  0  0  0  0  0  0  0  0  0
   -2.8850   -2.4085   -1.3854 C   0  0  0  0  0  0  0  0  0  0  0  0
   -1.7632   -2.9935   -1.8603 N   0  0  0  0  0  0  0  0  0  0  0  0
   -1.3868   -4.1270   -1.3449 C   0  0  0  0  0  0  0  0  0  0  0  0
   -2.1200   -4.7581   -0.3158 C   0  0  0  0  0  0  0  0  0  0  0  0
   -3.1614   -4.1798    0.2074 N   0  0  0  0  0  0  0  0  0  0  0  0
   -3.3293   -1.1870   -1.9244 C   0  0  0  0  0  0  0  0  0  0  0  0
   -4.4877   -0.6033   -1.3747 C   0  0  0  0  0  0  0  0  0  0  0  0
   -5.1224   -1.1485   -0.2099 C   0  0  0  0  0  0  0  0  0  0  0  0
   -6.1868   -0.5083    0.3215 N   0  0  0  0  0  0  0  0  0  0  0  0
   -6.6175    0.5769   -0.2537 C   0  0  0  0  0  0  0  0  0  0  0  0
   -6.0374    1.0655   -1.4442 C   0  0  0  0  0  0  0  0  0  0  0  0
   -5.0069    0.4852   -1.9832 N   0  0  0  0  0  0  0  0  0  0  0  0
   -2.5493   -0.5111   -2.9393 C   0  0  0  0  0  0  0  0  0  0  0  0
   -2.0175   -1.2132   -4.0393 C   0  0  0  0  0  0  0  0  0  0  0  0
   -1.0336   -0.6236   -4.8987 C   0  0  0  0  0  0  0  0  0  0  0  0
   -0.5028   -1.3620   -5.8973 N   0  0  0  0  0  0  0  0  0  0  0  0
   -0.9184   -2.5834   -6.0658 C   0  0  0  0  0  0  0  0  0  0  0  0
   -1.9444   -3.1324   -5.2658 C   0  0  0  0  0  0  0  0  0  0  0  0
   -2.4728   -2.4608   -4.2865 N   0  0  0  0  0  0  0  0  0  0  0  0
   -0.6155    0.7146   -4.7002 C   0  0  0  0  0  0  0  0  0  0  0  0
   -1.2904    1.4560   -3.7035 C   0  0  0  0  0  0  0  0  0  0  0  0
   -2.2127    0.8477   -2.7976 C   0  0  0  0  0  0  0  0  0  0  0  0
   -2.6948    1.5638   -1.7583 N   0  0  0  0  0  0  0  0  0  0  0  0
   -2.3785    2.8225   -1.6703 C   0  0  0  0  0  0  0  0  0  0  0  0
   -1.5540    3.4527   -2.6284 C   0  0  0  0  0  0  0  0  0  0  0  0
   -1.0133    2.7675   -3.5934 N   0  0  0  0  0  0  0  0  0  0  0  0
    0.4740    1.3232   -5.3979 C   0  0  0  0  0  0  0  0  0  0  0  0
    1.3407    0.7260   -6.2765 C   0  0  0  0  0  0  0  0  0  0  0  0
    2.3696    1.5757   -6.7314 C   0  0  0  0  0  0  0  0  0  0  0  0
    3.4198    1.2607   -7.6187 C   0  0  0  0  0  0  0  0  0  0  0  0
    3.4452   -0.0127   -8.3121 C   0  0  0  0  0  0  0  0  0  0  0  0
    4.8735   -1.0049   -8.3515 S   0  0  0  0  0  0  0  0  0  0  0  0
    4.0880   -2.2377   -9.2769 C   0  0  0  0  0  0  0  0  0  0  0  0
    4.7907   -3.4993   -9.6390 C   0  0  0  0  0  0  0  0  0  0  0  0
    4.6775   -4.5310   -8.5141 C   0  0  0  0  0  0  0  0  0  0  0  0
    2.7955   -1.8871   -9.5312 C   0  0  0  0  0  0  0  0  0  0  0  0
    1.6989   -2.8618  -10.4211 Cl  0  0  0  0  0  0  0  0  0  0  0  0
    2.4272   -0.6255   -8.9937 C   0  0  0  0  0  0  0  0  0  0  0  0
    0.8834    0.0706   -9.2716 Cl  0  0  0  0  0  0  0  0  0  0  0  0
    4.4122    2.2182   -7.7717 C   0  0  0  0  0  0  0  0  0  0  0  0
    4.3538    3.4894   -7.1474 C   0  0  0  0  0  0  0  0  0  0  0  0
    3.2439    3.8397   -6.3561 C   0  0  0  0  0  0  0  0  0  0  0  0
    3.1272    5.1729   -5.7930 C   0  0  0  0  0  0  0  0  0  0  0  0
    2.7979    5.4317   -4.1069 S   0  0  0  0  0  0  0  0  0  0  0  0
    2.8396    7.1527   -4.2837 C   0  0  0  0  0  0  0  0  0  0  0  0
    2.6839    8.0586   -3.1121 C   0  0  0  0  0  0  0  0  0  0  0  0
    4.0422    8.3649   -2.4759 C   0  0  0  0  0  0  0  0  0  0  0  0
    3.0921    7.4914   -5.5799 C   0  0  0  0  0  0  0  0  0  0  0  0
    3.2524    6.3729   -6.4391 C   0  0  0  0  0  0  0  0  0  0  0  0
    3.4950    6.5387   -8.1307 Cl  0  0  0  0  0  0  0  0  0  0  0  0
    3.2017    9.1093   -6.1411 Cl  0  0  0  0  0  0  0  0  0  0  0  0
    2.2907    2.8570   -6.1329 C   0  0  0  0  0  0  0  0  0  0  0  0
    0.8992    2.9952   -5.0877 S   0  0  0  0  0  0  0  0  0  0  0  0
    5.5205    4.2508   -7.3921 C   0  0  0  0  0  0  0  0  0  0  0  0
    6.4262    3.6206   -8.1933 C   0  0  0  0  0  0  0  0  0  0  0  0
    5.8723    2.0397   -8.7075 S   0  0  0  0  0  0  0  0  0  0  0  0
    7.7150    4.0952   -8.5729 C   0  0  0  0  0  0  0  0  0  0  0  0
    8.6633    3.4500   -9.3096 C   0  0  0  0  0  0  0  0  0  0  0  0
    9.8652    4.1868   -9.4525 C   0  0  0  0  0  0  0  0  0  0  0  0
   11.0235    3.8318  -10.1632 C   0  0  0  0  0  0  0  0  0  0  0  0
   11.1331    2.5510  -10.8417 C   0  0  0  0  0  0  0  0  0  0  0  0
   10.8612    1.0569   -9.9929 S   0  0  0  0  0  0  0  0  0  0  0  0
   11.2070    0.1047  -11.3957 C   0  0  0  0  0  0  0  0  0  0  0  0
   11.2032   -1.3829  -11.3380 C   0  0  0  0  0  0  0  0  0  0  0  0
   12.5347   -1.9123  -10.8000 C   0  0  0  0  0  0  0  0  0  0  0  0
   11.5170    0.9109  -12.4496 C   0  0  0  0  0  0  0  0  0  0  0  0
   11.9158    0.3301  -14.0141 Cl  0  0  0  0  0  0  0  0  0  0  0  0
   11.4730    2.2974  -12.1415 C   0  0  0  0  0  0  0  0  0  0  0  0
   11.7368    3.5086  -13.3243 Cl  0  0  0  0  0  0  0  0  0  0  0  0
   12.0666    4.7514  -10.1703 C   0  0  0  0  0  0  0  0  0  0  0  0
   11.9970    6.0008   -9.5088 C   0  0  0  0  0  0  0  0  0  0  0  0
   10.8403    6.3554   -8.7985 C   0  0  0  0  0  0  0  0  0  0  0  0
   10.7344    7.6222   -8.0901 C   0  0  0  0  0  0  0  0  0  0  0  0
   10.9508    9.1416   -8.9068 S   0  0  0  0  0  0  0  0  0  0  0  0
   10.6415   10.0502   -7.4667 C   0  0  0  0  0  0  0  0  0  0  0  0
   10.6141   11.5387   -7.4793 C   0  0  0  0  0  0  0  0  0  0  0  0
    9.2154   12.0548   -7.8265 C   0  0  0  0  0  0  0  0  0  0  0  0
   10.3830    9.2107   -6.4249 C   0  0  0  0  0  0  0  0  0  0  0  0
   10.4377    7.8343   -6.7728 C   0  0  0  0  0  0  0  0  0  0  0  0
   10.2306    6.5848   -5.6181 Cl  0  0  0  0  0  0  0  0  0  0  0  0
   10.0342    9.7441   -4.8318 Cl  0  0  0  0  0  0  0  0  0  0  0  0
    9.7976    5.4381   -8.7912 C   0  0  0  0  0  0  0  0  0  0  0  0
    8.2530    5.6698   -8.0270 S   0  0  0  0  0  0  0  0  0  0  0  0
   13.2179    6.7267   -9.6257 C   0  0  0  0  0  0  0  0  0  0  0  0
   14.1567    6.0598  -10.3279 C   0  0  0  0  0  0  0  0  0  0  0  0
   13.6293    4.5165  -10.8996 S   0  0  0  0  0  0  0  0  0  0  0  0
   -8.0605   -6.1402   17.4379 H   0  0  0  0  0  0  0  0  0  0  0  0
   -6.4293   -7.3631   15.8182 H   0  0  0  0  0  0  0  0  0  0  0  0
   -3.8339  -11.3006   12.0632 H   0  0  0  0  0  0  0  0  0  0  0  0
   -2.3954  -10.8865   13.0152 H   0  0  0  0  0  0  0  0  0  0  0  0
   -1.5993   -9.4210   11.1579 H   0  0  0  0  0  0  0  0  0  0  0  0
   -3.0410   -9.8223   10.2191 H   0  0  0  0  0  0  0  0  0  0  0  0
   -1.8494  -11.0745   10.5894 H   0  0  0  0  0  0  0  0  0  0  0  0
  -11.9382    0.5096   12.4558 H   0  0  0  0  0  0  0  0  0  0  0  0
  -10.2296    0.9298   12.2283 H   0  0  0  0  0  0  0  0  0  0  0  0
  -11.5025    1.2497   10.1181 H   0  0  0  0  0  0  0  0  0  0  0  0
  -11.9997   -0.4444   10.1470 H   0  0  0  0  0  0  0  0  0  0  0  0
  -10.2974   -0.0284    9.9265 H   0  0  0  0  0  0  0  0  0  0  0  0
   -8.4593   -3.4573   10.1709 H   0  0  0  0  0  0  0  0  0  0  0  0
   -5.2684   -5.9499    7.6120 H   0  0  0  0  0  0  0  0  0  0  0  0
   -2.0582  -10.0581    5.1796 H   0  0  0  0  0  0  0  0  0  0  0  0
   -3.8045  -10.3534    5.0870 H   0  0  0  0  0  0  0  0  0  0  0  0
   -2.9209  -11.0481    7.2996 H   0  0  0  0  0  0  0  0  0  0  0  0
   -4.0469   -9.6972    7.4791 H   0  0  0  0  0  0  0  0  0  0  0  0
   -2.3044   -9.4167    7.5809 H   0  0  0  0  0  0  0  0  0  0  0  0
   -8.1812    2.8874    4.9229 H   0  0  0  0  0  0  0  0  0  0  0  0
   -9.9165    2.5891    4.7196 H   0  0  0  0  0  0  0  0  0  0  0  0
   -9.5284    2.0588    2.3078 H   0  0  0  0  0  0  0  0  0  0  0  0
   -8.9428    3.6792    2.6986 H   0  0  0  0  0  0  0  0  0  0  0  0
   -7.7960    2.3440    2.5260 H   0  0  0  0  0  0  0  0  0  0  0  0
   -6.5343   -1.4024    2.2489 H   0  0  0  0  0  0  0  0  0  0  0  0
   -0.4799   -4.5647   -1.7401 H   0  0  0  0  0  0  0  0  0  0  0  0
   -1.8410   -5.7233    0.0825 H   0  0  0  0  0  0  0  0  0  0  0  0
   -7.4689    1.0633    0.2041 H   0  0  0  0  0  0  0  0  0  0  0  0
   -6.4468    1.9217   -1.9634 H   0  0  0  0  0  0  0  0  0  0  0  0
   -0.4678   -3.1415   -6.8760 H   0  0  0  0  0  0  0  0  0  0  0  0
   -2.3468   -4.1178   -5.4591 H   0  0  0  0  0  0  0  0  0  0  0  0
   -2.7761    3.3666   -0.8240 H   0  0  0  0  0  0  0  0  0  0  0  0
   -1.3307    4.5095   -2.5912 H   0  0  0  0  0  0  0  0  0  0  0  0
    1.2475   -0.3081   -6.5470 H   0  0  0  0  0  0  0  0  0  0  0  0
    5.8432   -3.2843   -9.8306 H   0  0  0  0  0  0  0  0  0  0  0  0
    4.3427   -3.9016  -10.5496 H   0  0  0  0  0  0  0  0  0  0  0  0
    5.1223   -4.1428   -7.6010 H   0  0  0  0  0  0  0  0  0  0  0  0
    3.6335   -4.7640   -8.3210 H   0  0  0  0  0  0  0  0  0  0  0  0
    5.1928   -5.4461   -8.7931 H   0  0  0  0  0  0  0  0  0  0  0  0
    2.2208    8.9894   -3.4457 H   0  0  0  0  0  0  0  0  0  0  0  0
    2.0336    7.5866   -2.3742 H   0  0  0  0  0  0  0  0  0  0  0  0
    4.5138    7.4469   -2.1339 H   0  0  0  0  0  0  0  0  0  0  0  0
    4.6971    8.8434   -3.1993 H   0  0  0  0  0  0  0  0  0  0  0  0
    3.9156    9.0310   -1.6266 H   0  0  0  0  0  0  0  0  0  0  0  0
    5.7047    5.2196   -6.9642 H   0  0  0  0  0  0  0  0  0  0  0  0
    8.5007    2.4749   -9.7319 H   0  0  0  0  0  0  0  0  0  0  0  0
   10.3909   -1.7186  -10.6909 H   0  0  0  0  0  0  0  0  0  0  0  0
   11.0346   -1.7709  -12.3442 H   0  0  0  0  0  0  0  0  0  0  0  0
   13.3533   -1.5913  -11.4391 H   0  0  0  0  0  0  0  0  0  0  0  0
   12.5205   -2.9984  -10.7708 H   0  0  0  0  0  0  0  0  0  0  0  0
   12.7106   -1.5373   -9.7946 H   0  0  0  0  0  0  0  0  0  0  0  0
   11.3318   11.9091   -8.2131 H   0  0  0  0  0  0  0  0  0  0  0  0
   10.9020   11.9029   -6.4912 H   0  0  0  0  0  0  0  0  0  0  0  0
    8.4917   11.6997   -7.0974 H   0  0  0  0  0  0  0  0  0  0  0  0
    8.9171   11.7039   -8.8115 H   0  0  0  0  0  0  0  0  0  0  0  0
    9.2076   13.1414   -7.8253 H   0  0  0  0  0  0  0  0  0  0  0  0
   13.3734    7.6975   -9.1925 H   0  0  0  0  0  0  0  0  0  0  0  0
   15.1549    6.3768  -10.5587 H   0  0  0  0  0  0  0  0  0  0  0  0
  1  2  2  0  0  0  0
  2  3  1  0  0  0  0
  3  4  2  0  0  0  0
  4  5  1  0  0  0  0
  5  6  1  0  0  0  0
  6  7  1  0  0  0  0
  7  8  1  0  0  0  0
  8  9  1  0  0  0  0
  7 10  2  0  0  0  0
 10 11  1  0  0  0  0
 10 12  1  0  0  0  0
 12 13  1  0  0  0  0
  4 14  1  0  0  0  0
 14 15  2  0  0  0  0
 15 16  1  0  0  0  0
 16 17  1  0  0  0  0
 17 18  1  0  0  0  0
 18 19  1  0  0  0  0
 19 20  1  0  0  0  0
 20 21  1  0  0  0  0
 19 22  2  0  0  0  0
 22 23  1  0  0  0  0
 23 24  1  0  0  0  0
 22 25  1  0  0  0  0
 16 26  2  0  0  0  0
 26 27  1  0  0  0  0
 15 28  1  0  0  0  0
 28 29  2  0  0  0  0
 29 30  1  0  0  0  0
 29 31  1  0  0  0  0
 31 32  2  0  0  0  0
 32 33  1  0  0  0  0
 33 34  2  0  0  0  0
 34 35  1  0  0  0  0
 35 36  1  0  0  0  0
 36 37  1  0  0  0  0
 37 38  1  0  0  0  0
 38 39  1  0  0  0  0
 37 40  2  0  0  0  0
 40 41  1  0  0  0  0
 40 42  1  0  0  0  0
 42 43  1  0  0  0  0
 34 44  1  0  0  0  0
 44 45  2  0  0  0  0
 45 46  1  0  0  0  0
 46 47  1  0  0  0  0
 47 48  1  0  0  0  0
 48 49  1  0  0  0  0
 49 50  1  0  0  0  0
 50 51  1  0  0  0  0
 49 52  2  0  0  0  0
 52 53  1  0  0  0  0
 53 54  1  0  0  0  0
 52 55  1  0  0  0  0
 46 56  2  0  0  0  0
 56 57  1  0  0  0  0
 45 58  1  0  0  0  0
 58 59  2  0  0  0  0
 59 60  1  0  0  0  0
 59 61  1  0  0  0  0
 61 62  1  0  0  0  0
 62 63  1  0  0  0  0
 63 64  2  0  0  0  0
 64 65  1  0  0  0  0
 65 66  2  0  0  0  0
 66 67  1  0  0  0  0
 63 68  1  0  0  0  0
 68 69  2  0  0  0  0
 69 70  1  0  0  0  0
 70 71  1  0  0  0  0
 71 72  2  0  0  0  0
 72 73  1  0  0  0  0
 73 74  2  0  0  0  0
 68 75  1  0  0  0  0
 75 76  1  0  0  0  0
 76 77  1  0  0  0  0
 77 78  2  0  0  0  0
 78 79  1  0  0  0  0
 79 80  2  0  0  0  0
 80 81  1  0  0  0  0
 77 82  1  0  0  0  0
 82 83  2  0  0  0  0
 83 84  1  0  0  0  0
 84 85  1  0  0  0  0
 85 86  2  0  0  0  0
 86 87  1  0  0  0  0
 87 88  2  0  0  0  0
 82 89  1  0  0  0  0
 89 90  2  0  0  0  0
 90 91  1  0  0  0  0
 91 92  2  0  0  0  0
 92 93  1  0  0  0  0
 93 94  1  0  0  0  0
 94 95  1  0  0  0  0
 95 96  1  0  0  0  0
 96 97  1  0  0  0  0
 95 98  2  0  0  0  0
 98 99  1  0  0  0  0
 98100  1  0  0  0  0
100101  1  0  0  0  0
 92102  1  0  0  0  0
102103  2  0  0  0  0
103104  1  0  0  0  0
104105  1  0  0  0  0
105106  1  0  0  0  0
106107  1  0  0  0  0
107108  1  0  0  0  0
108109  1  0  0  0  0
107110  2  0  0  0  0
110111  1  0  0  0  0
111112  1  0  0  0  0
110113  1  0  0  0  0
104114  2  0  0  0  0
114115  1  0  0  0  0
103116  1  0  0  0  0
116117  2  0  0  0  0
117118  1  0  0  0  0
117119  1  0  0  0  0
119120  2  0  0  0  0
120121  1  0  0  0  0
121122  2  0  0  0  0
122123  1  0  0  0  0
123124  1  0  0  0  0
124125  1  0  0  0  0
125126  1  0  0  0  0
126127  1  0  0  0  0
125128  2  0  0  0  0
128129  1  0  0  0  0
128130  1  0  0  0  0
130131  1  0  0  0  0
122132  1  0  0  0  0
132133  2  0  0  0  0
133134  1  0  0  0  0
134135  1  0  0  0  0
135136  1  0  0  0  0
136137  1  0  0  0  0
137138  1  0  0  0  0
138139  1  0  0  0  0
137140  2  0  0  0  0
140141  1  0  0  0  0
141142  1  0  0  0  0
140143  1  0  0  0  0
134144  2  0  0  0  0
144145  1  0  0  0  0
133146  1  0  0  0  0
146147  2  0  0  0  0
147148  1  0  0  0  0
 27  1  1  0  0  0  0
 57 31  1  0  0  0  0
 70 61  2  0  0  0  0
 84 75  2  0  0  0  0
115 89  1  0  0  0  0
145119  1  0  0  0  0
 26  3  1  0  0  0  0
 56 33  1  0  0  0  0
 67 62  2  0  0  0  0
 74 69  1  0  0  0  0
 81 76  2  0  0  0  0
 88 83  1  0  0  0  0
114 91  1  0  0  0  0
144121  1  0  0  0  0
 12  5  2  0  0  0  0
 30 14  1  0  0  0  0
 42 35  2  0  0  0  0
 60 44  1  0  0  0  0
100 93  2  0  0  0  0
118102  1  0  0  0  0
130123  2  0  0  0  0
148132  1  0  0  0  0
 23 17  2  0  0  0  0
 53 47  2  0  0  0  0
111105  2  0  0  0  0
141135  2  0  0  0  0
  1149  1  0  0  0  0
  2150  1  0  0  0  0
  8151  1  0  0  0  0
  8152  1  0  0  0  0
  9153  1  0  0  0  0
  9154  1  0  0  0  0
  9155  1  0  0  0  0
 20156  1  0  0  0  0
 20157  1  0  0  0  0
 21158  1  0  0  0  0
 21159  1  0  0  0  0
 21160  1  0  0  0  0
 28161  1  0  0  0  0
 32162  1  0  0  0  0
 38163  1  0  0  0  0
 38164  1  0  0  0  0
 39165  1  0  0  0  0
 39166  1  0  0  0  0
 39167  1  0  0  0  0
 50168  1  0  0  0  0
 50169  1  0  0  0  0
 51170  1  0  0  0  0
 51171  1  0  0  0  0
 51172  1  0  0  0  0
 58173  1  0  0  0  0
 65174  1  0  0  0  0
 66175  1  0  0  0  0
 72176  1  0  0  0  0
 73177  1  0  0  0  0
 79178  1  0  0  0  0
 80179  1  0  0  0  0
 86180  1  0  0  0  0
 87181  1  0  0  0  0
 90182  1  0  0  0  0
 96183  1  0  0  0  0
 96184  1  0  0  0  0
 97185  1  0  0  0  0
 97186  1  0  0  0  0
 97187  1  0  0  0  0
108188  1  0  0  0  0
108189  1  0  0  0  0
109190  1  0  0  0  0
109191  1  0  0  0  0
109192  1  0  0  0  0
116193  1  0  0  0  0
120194  1  0  0  0  0
126195  1  0  0  0  0
126196  1  0  0  0  0
127197  1  0  0  0  0
127198  1  0  0  0  0
127199  1  0  0  0  0
138200  1  0  0  0  0
138201  1  0  0  0  0
139202  1  0  0  0  0
139203  1  0  0  0  0
139204  1  0  0  0  0
146205  1  0  0  0  0
147206  1  0  0  0  0
M  END
