
  xtb     03022212543D
 energy: -455.948057892001 gnorm: 0.000664135210 xtb: 6.4.1 (unknown)
231257  0     0  0            999 V2000
    2.5938   -8.1281   10.6966 C   0  0  0  0  0  0  0  0  0  0  0  0
    3.2939   -6.9756   10.7072 C   0  0  0  0  0  0  0  0  0  0  0  0
    2.8910   -6.0751    9.6783 C   0  0  0  0  0  0  0  0  0  0  0  0
    3.4137   -4.8099    9.3685 C   0  0  0  0  0  0  0  0  0  0  0  0
    4.5765   -4.2833   10.0643 C   0  0  0  0  0  0  0  0  0  0  0  0
    4.5785   -2.7025   10.7868 S   0  0  0  0  0  0  0  0  0  0  0  0
    6.2086   -2.8719   11.3398 C   0  0  0  0  0  0  0  0  0  0  0  0
    6.9061   -1.7683   12.0559 C   0  0  0  0  0  0  0  0  0  0  0  0
    7.7274   -0.9226   11.0796 C   0  0  0  0  0  0  0  0  0  0  0  0
    6.7141   -4.0811   10.9647 C   0  0  0  0  0  0  0  0  0  0  0  0
    8.3083   -4.6030   11.3266 Cl  0  0  0  0  0  0  0  0  0  0  0  0
    5.7916   -4.8852   10.2443 C   0  0  0  0  0  0  0  0  0  0  0  0
    6.2137   -6.4196    9.6002 Cl  0  0  0  0  0  0  0  0  0  0  0  0
    2.7884   -4.1009    8.3509 C   0  0  0  0  0  0  0  0  0  0  0  0
    1.7106   -4.6215    7.5943 C   0  0  0  0  0  0  0  0  0  0  0  0
    1.2173   -5.9051    7.8766 C   0  0  0  0  0  0  0  0  0  0  0  0
    0.1384   -6.4980    7.1014 C   0  0  0  0  0  0  0  0  0  0  0  0
    0.2967   -6.7257    5.3869 S   0  0  0  0  0  0  0  0  0  0  0  0
   -1.2586   -7.4810    5.2603 C   0  0  0  0  0  0  0  0  0  0  0  0
   -1.7931   -7.9535    3.9520 C   0  0  0  0  0  0  0  0  0  0  0  0
   -0.7282   -8.6477    3.1082 C   0  0  0  0  0  0  0  0  0  0  0  0
   -1.8490   -7.5420    6.4870 C   0  0  0  0  0  0  0  0  0  0  0  0
   -1.0603   -6.9892    7.5330 C   0  0  0  0  0  0  0  0  0  0  0  0
   -1.6122   -6.8935    9.1524 Cl  0  0  0  0  0  0  0  0  0  0  0  0
   -3.4009   -8.2169    6.7719 Cl  0  0  0  0  0  0  0  0  0  0  0  0
    1.8158   -6.5985    8.9214 C   0  0  0  0  0  0  0  0  0  0  0  0
    1.3923   -8.1996    9.4559 S   0  0  0  0  0  0  0  0  0  0  0  0
    1.2489   -3.6951    6.6236 C   0  0  0  0  0  0  0  0  0  0  0  0
    1.9388   -2.5199    6.6240 C   0  0  0  0  0  0  0  0  0  0  0  0
    3.2212   -2.5018    7.8205 S   0  0  0  0  0  0  0  0  0  0  0  0
    1.7128   -1.3538    5.8335 C   0  0  0  0  0  0  0  0  0  0  0  0
    2.3737   -0.1649    5.9243 C   0  0  0  0  0  0  0  0  0  0  0  0
    1.8822    0.8300    5.0443 C   0  0  0  0  0  0  0  0  0  0  0  0
    2.3695    2.1373    4.8662 C   0  0  0  0  0  0  0  0  0  0  0  0
    3.4789    2.6415    5.6581 C   0  0  0  0  0  0  0  0  0  0  0  0
    3.4417    2.5692    7.3961 S   0  0  0  0  0  0  0  0  0  0  0  0
    4.9841    3.3403    7.5416 C   0  0  0  0  0  0  0  0  0  0  0  0
    5.6093    3.5539    8.8757 C   0  0  0  0  0  0  0  0  0  0  0  0
    6.1383    2.2376    9.4493 C   0  0  0  0  0  0  0  0  0  0  0  0
    5.4876    3.6246    6.3080 C   0  0  0  0  0  0  0  0  0  0  0  0
    7.0046    4.3807    6.0421 Cl  0  0  0  0  0  0  0  0  0  0  0  0
    4.6349    3.2381    5.2378 C   0  0  0  0  0  0  0  0  0  0  0  0
    5.0803    3.4319    3.5944 Cl  0  0  0  0  0  0  0  0  0  0  0  0
    1.7244    2.9259    3.9208 C   0  0  0  0  0  0  0  0  0  0  0  0
    0.6277    2.4514    3.1633 C   0  0  0  0  0  0  0  0  0  0  0  0
    0.1742    1.1279    3.2958 C   0  0  0  0  0  0  0  0  0  0  0  0
   -0.8583    0.6123    2.4106 C   0  0  0  0  0  0  0  0  0  0  0  0
   -0.6713    0.7679    0.6864 S   0  0  0  0  0  0  0  0  0  0  0  0
   -2.1355   -0.0889    0.3685 C   0  0  0  0  0  0  0  0  0  0  0  0
   -2.5515   -0.4163   -1.0224 C   0  0  0  0  0  0  0  0  0  0  0  0
   -1.8509   -1.6872   -1.5062 C   0  0  0  0  0  0  0  0  0  0  0  0
   -2.7342   -0.4515    1.5380 C   0  0  0  0  0  0  0  0  0  0  0  0
   -2.0141   -0.0598    2.6979 C   0  0  0  0  0  0  0  0  0  0  0  0
   -2.5981   -0.3489    4.2834 Cl  0  0  0  0  0  0  0  0  0  0  0  0
   -4.2331   -1.2838    1.6188 Cl  0  0  0  0  0  0  0  0  0  0  0  0
    0.8075    0.3477    4.2543 C   0  0  0  0  0  0  0  0  0  0  0  0
    0.4465   -1.3127    4.6264 S   0  0  0  0  0  0  0  0  0  0  0  0
    0.0785    3.4696    2.3466 C   0  0  0  0  0  0  0  0  0  0  0  0
    0.7361    4.6568    2.4374 C   0  0  0  0  0  0  0  0  0  0  0  0
    2.0784    4.5928    3.5485 S   0  0  0  0  0  0  0  0  0  0  0  0
    0.3304    5.7903    1.6404 C   0  0  0  0  0  0  0  0  0  0  0  0
   -0.9471    6.2500    1.5861 C   0  0  0  0  0  0  0  0  0  0  0  0
   -1.2204    7.0346    0.4375 C   0  0  0  0  0  0  0  0  0  0  0  0
   -2.4809    7.4459   -0.0271 C   0  0  0  0  0  0  0  0  0  0  0  0
   -3.7113    7.1784    0.6999 C   0  0  0  0  0  0  0  0  0  0  0  0
   -4.0865    5.5782    1.2652 S   0  0  0  0  0  0  0  0  0  0  0  0
   -5.6791    6.0364    1.7554 C   0  0  0  0  0  0  0  0  0  0  0  0
   -6.5916    5.0607    2.4131 C   0  0  0  0  0  0  0  0  0  0  0  0
   -6.3568    5.0206    3.9247 C   0  0  0  0  0  0  0  0  0  0  0  0
   -5.8900    7.3585    1.4996 C   0  0  0  0  0  0  0  0  0  0  0  0
   -7.3519    8.1804    1.8616 Cl  0  0  0  0  0  0  0  0  0  0  0  0
   -4.7852    8.0037    0.8824 C   0  0  0  0  0  0  0  0  0  0  0  0
   -4.7943    9.6646    0.4620 Cl  0  0  0  0  0  0  0  0  0  0  0  0
   -2.5513    7.8758   -1.3431 C   0  0  0  0  0  0  0  0  0  0  0  0
   -1.4229    7.9294   -2.1967 C   0  0  0  0  0  0  0  0  0  0  0  0
   -0.1472    7.6224   -1.6961 C   0  0  0  0  0  0  0  0  0  0  0  0
    0.9721    7.5085   -2.6265 C   0  0  0  0  0  0  0  0  0  0  0  0
    1.6648    8.8810   -3.4293 S   0  0  0  0  0  0  0  0  0  0  0  0
    2.7132    7.8868   -4.3842 C   0  0  0  0  0  0  0  0  0  0  0  0
    3.6911    8.4802   -5.3370 C   0  0  0  0  0  0  0  0  0  0  0  0
    5.0268    8.7626   -4.6460 C   0  0  0  0  0  0  0  0  0  0  0  0
    2.5281    6.5716   -4.0799 C   0  0  0  0  0  0  0  0  0  0  0  0
    1.5310    6.3522   -3.0916 C   0  0  0  0  0  0  0  0  0  0  0  0
    1.0229    4.7877   -2.6030 Cl  0  0  0  0  0  0  0  0  0  0  0  0
    3.3844    5.2885   -4.8284 Cl  0  0  0  0  0  0  0  0  0  0  0  0
   -0.0762    7.1668   -0.3870 C   0  0  0  0  0  0  0  0  0  0  0  0
    1.3225    6.4212    0.3415 S   0  0  0  0  0  0  0  0  0  0  0  0
   -1.7909    7.8435   -3.5662 C   0  0  0  0  0  0  0  0  0  0  0  0
   -3.1301    7.6316   -3.7442 C   0  0  0  0  0  0  0  0  0  0  0  0
   -4.0361    7.9158   -2.2621 S   0  0  0  0  0  0  0  0  0  0  0  0
   -3.6339    6.6652   -4.6777 C   0  0  0  0  0  0  0  0  0  0  0  0
   -3.0683    6.2038   -5.8313 C   0  0  0  0  0  0  0  0  0  0  0  0
   -3.2628    4.8110   -6.0324 C   0  0  0  0  0  0  0  0  0  0  0  0
   -2.6449    3.9693   -6.9756 C   0  0  0  0  0  0  0  0  0  0  0  0
   -1.7045    4.5170   -7.9448 C   0  0  0  0  0  0  0  0  0  0  0  0
   -1.8905    4.3305   -9.6589 S   0  0  0  0  0  0  0  0  0  0  0  0
   -0.4224    5.1902   -9.9885 C   0  0  0  0  0  0  0  0  0  0  0  0
    0.0171    5.4574  -11.3858 C   0  0  0  0  0  0  0  0  0  0  0  0
   -0.6853    6.6923  -11.9549 C   0  0  0  0  0  0  0  0  0  0  0  0
    0.1623    5.5933   -8.8255 C   0  0  0  0  0  0  0  0  0  0  0  0
    1.6334    6.4717   -8.7385 Cl  0  0  0  0  0  0  0  0  0  0  0  0
   -0.5584    5.2070   -7.6644 C   0  0  0  0  0  0  0  0  0  0  0  0
    0.0126    5.5185   -6.0733 Cl  0  0  0  0  0  0  0  0  0  0  0  0
   -2.8301    2.6017   -6.8323 C   0  0  0  0  0  0  0  0  0  0  0  0
   -3.4994    2.0309   -5.7182 C   0  0  0  0  0  0  0  0  0  0  0  0
   -4.0995    2.8673   -4.7623 C   0  0  0  0  0  0  0  0  0  0  0  0
   -4.6096    2.3628   -3.4937 C   0  0  0  0  0  0  0  0  0  0  0  0
   -5.9226    1.2311   -3.3813 S   0  0  0  0  0  0  0  0  0  0  0  0
   -5.8622    1.2082   -1.6504 C   0  0  0  0  0  0  0  0  0  0  0  0
   -6.8306    0.4154   -0.8438 C   0  0  0  0  0  0  0  0  0  0  0  0
   -8.0649    1.2512   -0.4975 C   0  0  0  0  0  0  0  0  0  0  0  0
   -4.8776    2.0366   -1.2024 C   0  0  0  0  0  0  0  0  0  0  0  0
   -4.1565    2.6822   -2.2419 C   0  0  0  0  0  0  0  0  0  0  0  0
   -2.7975    3.6872   -1.9170 Cl  0  0  0  0  0  0  0  0  0  0  0  0
   -4.5051    2.2699    0.4566 Cl  0  0  0  0  0  0  0  0  0  0  0  0
   -4.0237    4.2315   -4.9876 C   0  0  0  0  0  0  0  0  0  0  0  0
   -4.6401    5.4374   -3.9060 S   0  0  0  0  0  0  0  0  0  0  0  0
   -3.3318    0.6335   -5.6564 C   0  0  0  0  0  0  0  0  0  0  0  0
   -2.5860    0.1255   -6.6876 C   0  0  0  0  0  0  0  0  0  0  0  0
   -2.0885    1.3660   -7.8223 S   0  0  0  0  0  0  0  0  0  0  0  0
   -2.1530   -1.2145   -6.7916 C   0  0  0  0  0  0  0  0  0  0  0  0
   -1.5303   -1.8789   -7.8537 C   0  0  0  0  0  0  0  0  0  0  0  0
   -1.4822   -1.2758   -9.0676 O   0  0  0  0  0  0  0  0  0  0  0  0
   -1.0846   -2.0845  -10.1531 C   0  0  0  0  0  0  0  0  0  0  0  0
    0.1972   -2.8514   -9.8728 C   0  0  0  0  0  0  0  0  0  0  0  0
   -0.1181   -4.1441   -8.6256 S   0  0  0  0  0  0  0  0  0  0  0  0
   -1.0031   -3.1307   -7.5047 C   0  0  0  0  0  0  0  0  0  0  0  0
   -1.1873   -3.4535   -6.1546 C   0  0  0  0  0  0  0  0  0  0  0  0
   -2.0537   -2.1635   -5.3250 S   0  0  0  0  0  3  0  0  0  0  0  0
   -3.6735   -2.7168   -5.1148 N   0  0  0  0  0  0  0  0  0  0  0  0
   -4.2800   -3.4699   -6.1875 C   0  0  0  0  0  0  0  0  0  0  0  0
   -0.6378   -4.4783   -5.3647 C   0  0  0  0  0  0  0  0  0  0  0  0
   -0.0022   -5.6396   -5.7215 C   0  0  0  0  0  0  0  0  0  0  0  0
    0.5237   -6.3559   -4.6224 C   0  0  0  0  0  0  0  0  0  0  0  0
    1.2443   -7.5638   -4.6335 C   0  0  0  0  0  0  0  0  0  0  0  0
    1.6455   -8.1747   -5.8868 C   0  0  0  0  0  0  0  0  0  0  0  0
    1.3340   -9.8488   -6.2396 S   0  0  0  0  0  0  0  0  0  0  0  0
    2.0832   -9.7421   -7.7968 C   0  0  0  0  0  0  0  0  0  0  0  0
    2.1224  -10.9120   -8.7165 C   0  0  0  0  0  0  0  0  0  0  0  0
    0.8146  -11.0381   -9.5014 C   0  0  0  0  0  0  0  0  0  0  0  0
    2.5361   -8.4760   -8.0175 C   0  0  0  0  0  0  0  0  0  0  0  0
    3.3352   -7.9815   -9.4535 Cl  0  0  0  0  0  0  0  0  0  0  0  0
    2.2975   -7.5866   -6.9368 C   0  0  0  0  0  0  0  0  0  0  0  0
    2.8645   -5.9675   -6.9372 Cl  0  0  0  0  0  0  0  0  0  0  0  0
    1.5757   -8.1137   -3.3985 C   0  0  0  0  0  0  0  0  0  0  0  0
    1.3071   -7.4732   -2.1673 C   0  0  0  0  0  0  0  0  0  0  0  0
    0.6582   -6.2244   -2.1585 C   0  0  0  0  0  0  0  0  0  0  0  0
    0.4845   -5.4454   -0.9420 C   0  0  0  0  0  0  0  0  0  0  0  0
   -0.2967   -6.0723    0.4793 S   0  0  0  0  0  0  0  0  0  0  0  0
   -0.0461   -4.6062    1.3652 C   0  0  0  0  0  0  0  0  0  0  0  0
   -0.5204   -4.4415    2.7643 C   0  0  0  0  0  0  0  0  0  0  0  0
   -1.9635   -3.9407    2.8091 C   0  0  0  0  0  0  0  0  0  0  0  0
    0.5923   -3.6893    0.5871 C   0  0  0  0  0  0  0  0  0  0  0  0
    0.8975   -4.1605   -0.7176 C   0  0  0  0  0  0  0  0  0  0  0  0
    1.7849   -3.2156   -1.8408 Cl  0  0  0  0  0  0  0  0  0  0  0  0
    1.0232   -2.1192    1.1310 Cl  0  0  0  0  0  0  0  0  0  0  0  0
    0.2472   -5.7256   -3.3832 C   0  0  0  0  0  0  0  0  0  0  0  0
   -0.6864   -4.2744   -3.6129 S   0  0  0  0  0  0  0  0  0  0  0  0
    1.8176   -8.2155   -1.0642 C   0  0  0  0  0  0  0  0  0  0  0  0
    2.4286   -9.3579   -1.4402 C   0  0  0  0  0  0  0  0  0  0  0  0
    2.4409   -9.6048   -3.1525 S   0  0  0  0  0  0  0  0  0  0  0  0
    2.6972   -8.9670   11.3567 H   0  0  0  0  0  0  0  0  0  0  0  0
    4.0628   -6.7526   11.4233 H   0  0  0  0  0  0  0  0  0  0  0  0
    6.1680   -1.1392   12.5551 H   0  0  0  0  0  0  0  0  0  0  0  0
    7.5688   -2.1987   12.8096 H   0  0  0  0  0  0  0  0  0  0  0  0
    8.2220   -0.1141   11.6108 H   0  0  0  0  0  0  0  0  0  0  0  0
    7.0826   -0.4968   10.3152 H   0  0  0  0  0  0  0  0  0  0  0  0
    8.4836   -1.5352   10.5960 H   0  0  0  0  0  0  0  0  0  0  0  0
   -2.1921   -7.1011    3.3938 H   0  0  0  0  0  0  0  0  0  0  0  0
   -2.6215   -8.6357    4.1516 H   0  0  0  0  0  0  0  0  0  0  0  0
   -0.3396   -9.5188    3.6291 H   0  0  0  0  0  0  0  0  0  0  0  0
    0.0969   -7.9692    2.9044 H   0  0  0  0  0  0  0  0  0  0  0  0
   -1.1516   -8.9656    2.1596 H   0  0  0  0  0  0  0  0  0  0  0  0
    0.4222   -3.8852    5.9628 H   0  0  0  0  0  0  0  0  0  0  0  0
    3.1887   -0.0114    6.6079 H   0  0  0  0  0  0  0  0  0  0  0  0
    6.4287    4.2658    8.7655 H   0  0  0  0  0  0  0  0  0  0  0  0
    4.8704    3.9745    9.5608 H   0  0  0  0  0  0  0  0  0  0  0  0
    6.8877    1.8131    8.7857 H   0  0  0  0  0  0  0  0  0  0  0  0
    6.5912    2.4098   10.4218 H   0  0  0  0  0  0  0  0  0  0  0  0
    5.3253    1.5236    9.5622 H   0  0  0  0  0  0  0  0  0  0  0  0
   -2.2968    0.4124   -1.6851 H   0  0  0  0  0  0  0  0  0  0  0  0
   -3.6331   -0.5625   -1.0437 H   0  0  0  0  0  0  0  0  0  0  0  0
   -2.1521   -1.9135   -2.5256 H   0  0  0  0  0  0  0  0  0  0  0  0
   -2.1061   -2.5304   -0.8689 H   0  0  0  0  0  0  0  0  0  0  0  0
   -0.7729   -1.5557   -1.4886 H   0  0  0  0  0  0  0  0  0  0  0  0
   -0.7737    3.3317    1.7066 H   0  0  0  0  0  0  0  0  0  0  0  0
   -1.6860    5.9847    2.3191 H   0  0  0  0  0  0  0  0  0  0  0  0
   -6.4187    4.0682    1.9936 H   0  0  0  0  0  0  0  0  0  0  0  0
   -7.6233    5.3544    2.2106 H   0  0  0  0  0  0  0  0  0  0  0  0
   -7.0351    4.3098    4.3890 H   0  0  0  0  0  0  0  0  0  0  0  0
   -6.5288    6.0020    4.3592 H   0  0  0  0  0  0  0  0  0  0  0  0
   -5.3346    4.7182    4.1394 H   0  0  0  0  0  0  0  0  0  0  0  0
    3.2848    9.4088   -5.7412 H   0  0  0  0  0  0  0  0  0  0  0  0
    3.8462    7.7788   -6.1593 H   0  0  0  0  0  0  0  0  0  0  0  0
    4.8867    9.4630   -3.8262 H   0  0  0  0  0  0  0  0  0  0  0  0
    5.7310    9.1901   -5.3547 H   0  0  0  0  0  0  0  0  0  0  0  0
    5.4468    7.8421   -4.2488 H   0  0  0  0  0  0  0  0  0  0  0  0
   -1.0711    7.7088   -4.3534 H   0  0  0  0  0  0  0  0  0  0  0  0
   -2.4623    6.8175   -6.4718 H   0  0  0  0  0  0  0  0  0  0  0  0
    1.0970    5.6168  -11.3887 H   0  0  0  0  0  0  0  0  0  0  0  0
   -0.2114    4.5909  -12.0087 H   0  0  0  0  0  0  0  0  0  0  0  0
   -0.3535    6.8748  -12.9734 H   0  0  0  0  0  0  0  0  0  0  0  0
   -1.7625    6.5442  -11.9588 H   0  0  0  0  0  0  0  0  0  0  0  0
   -0.4564    7.5673  -11.3518 H   0  0  0  0  0  0  0  0  0  0  0  0
   -7.1346   -0.4685   -1.4068 H   0  0  0  0  0  0  0  0  0  0  0  0
   -6.3397    0.0941    0.0772 H   0  0  0  0  0  0  0  0  0  0  0  0
   -8.7567    0.6652    0.1013 H   0  0  0  0  0  0  0  0  0  0  0  0
   -7.7746    2.1333    0.0674 H   0  0  0  0  0  0  0  0  0  0  0  0
   -8.5711    1.5715   -1.4048 H   0  0  0  0  0  0  0  0  0  0  0  0
   -3.7344    0.0139   -4.8757 H   0  0  0  0  0  0  0  0  0  0  0  0
   -1.8876   -2.7903  -10.4095 H   0  0  0  0  0  0  0  0  0  0  0  0
   -0.9424   -1.3878  -10.9831 H   0  0  0  0  0  0  0  0  0  0  0  0
    0.5496   -3.3643  -10.7645 H   0  0  0  0  0  0  0  0  0  0  0  0
    0.9727   -2.1861   -9.4920 H   0  0  0  0  0  0  0  0  0  0  0  0
   -3.7457   -3.1858   -4.2188 H   0  0  0  0  0  0  0  0  0  0  0  0
   -5.3255   -3.6439   -5.9410 H   0  0  0  0  0  0  0  0  0  0  0  0
   -4.2270   -2.8662   -7.0927 H   0  0  0  0  0  0  0  0  0  0  0  0
   -3.7866   -4.4314   -6.3691 H   0  0  0  0  0  0  0  0  0  0  0  0
    0.0715   -5.9697   -6.7401 H   0  0  0  0  0  0  0  0  0  0  0  0
    2.2867  -11.8219   -8.1367 H   0  0  0  0  0  0  0  0  0  0  0  0
    2.9548  -10.7831   -9.4107 H   0  0  0  0  0  0  0  0  0  0  0  0
    0.6435  -10.1428  -10.0938 H   0  0  0  0  0  0  0  0  0  0  0  0
   -0.0221  -11.1696   -8.8194 H   0  0  0  0  0  0  0  0  0  0  0  0
    0.8604  -11.8945  -10.1686 H   0  0  0  0  0  0  0  0  0  0  0  0
    0.1260   -3.7181    3.2642 H   0  0  0  0  0  0  0  0  0  0  0  0
   -0.4428   -5.3953    3.2849 H   0  0  0  0  0  0  0  0  0  0  0  0
   -2.2872   -3.8219    3.8395 H   0  0  0  0  0  0  0  0  0  0  0  0
   -2.6298   -4.6405    2.3094 H   0  0  0  0  0  0  0  0  0  0  0  0
   -2.0352   -2.9788    2.3114 H   0  0  0  0  0  0  0  0  0  0  0  0
    1.7218   -7.8998   -0.0417 H   0  0  0  0  0  0  0  0  0  0  0  0
    2.8898  -10.0955   -0.8134 H   0  0  0  0  0  0  0  0  0  0  0  0
  1  2  2  0  0  0  0
  2  3  1  0  0  0  0
  3  4  2  0  0  0  0
  4  5  1  0  0  0  0
  5  6  1  0  0  0  0
  6  7  1  0  0  0  0
  7  8  1  0  0  0  0
  8  9  1  0  0  0  0
  7 10  2  0  0  0  0
 10 11  1  0  0  0  0
 10 12  1  0  0  0  0
 12 13  1  0  0  0  0
  4 14  1  0  0  0  0
 14 15  2  0  0  0  0
 15 16  1  0  0  0  0
 16 17  1  0  0  0  0
 17 18  1  0  0  0  0
 18 19  1  0  0  0  0
 19 20  1  0  0  0  0
 20 21  1  0  0  0  0
 19 22  2  0  0  0  0
 22 23  1  0  0  0  0
 23 24  1  0  0  0  0
 22 25  1  0  0  0  0
 16 26  2  0  0  0  0
 26 27  1  0  0  0  0
 15 28  1  0  0  0  0
 28 29  2  0  0  0  0
 29 30  1  0  0  0  0
 29 31  1  0  0  0  0
 31 32  2  0  0  0  0
 32 33  1  0  0  0  0
 33 34  2  0  0  0  0
 34 35  1  0  0  0  0
 35 36  1  0  0  0  0
 36 37  1  0  0  0  0
 37 38  1  0  0  0  0
 38 39  1  0  0  0  0
 37 40  2  0  0  0  0
 40 41  1  0  0  0  0
 40 42  1  0  0  0  0
 42 43  1  0  0  0  0
 34 44  1  0  0  0  0
 44 45  2  0  0  0  0
 45 46  1  0  0  0  0
 46 47  1  0  0  0  0
 47 48  1  0  0  0  0
 48 49  1  0  0  0  0
 49 50  1  0  0  0  0
 50 51  1  0  0  0  0
 49 52  2  0  0  0  0
 52 53  1  0  0  0  0
 53 54  1  0  0  0  0
 52 55  1  0  0  0  0
 46 56  2  0  0  0  0
 56 57  1  0  0  0  0
 45 58  1  0  0  0  0
 58 59  2  0  0  0  0
 59 60  1  0  0  0  0
 59 61  1  0  0  0  0
 61 62  2  0  0  0  0
 62 63  1  0  0  0  0
 63 64  2  0  0  0  0
 64 65  1  0  0  0  0
 65 66  1  0  0  0  0
 66 67  1  0  0  0  0
 67 68  1  0  0  0  0
 68 69  1  0  0  0  0
 67 70  2  0  0  0  0
 70 71  1  0  0  0  0
 70 72  1  0  0  0  0
 72 73  1  0  0  0  0
 64 74  1  0  0  0  0
 74 75  2  0  0  0  0
 75 76  1  0  0  0  0
 76 77  1  0  0  0  0
 77 78  1  0  0  0  0
 78 79  1  0  0  0  0
 79 80  1  0  0  0  0
 80 81  1  0  0  0  0
 79 82  2  0  0  0  0
 82 83  1  0  0  0  0
 83 84  1  0  0  0  0
 82 85  1  0  0  0  0
 76 86  2  0  0  0  0
 86 87  1  0  0  0  0
 75 88  1  0  0  0  0
 88 89  2  0  0  0  0
 89 90  1  0  0  0  0
 89 91  1  0  0  0  0
 91 92  2  0  0  0  0
 92 93  1  0  0  0  0
 93 94  2  0  0  0  0
 94 95  1  0  0  0  0
 95 96  1  0  0  0  0
 96 97  1  0  0  0  0
 97 98  1  0  0  0  0
 98 99  1  0  0  0  0
 97100  2  0  0  0  0
100101  1  0  0  0  0
100102  1  0  0  0  0
102103  1  0  0  0  0
 94104  1  0  0  0  0
104105  2  0  0  0  0
105106  1  0  0  0  0
106107  1  0  0  0  0
107108  1  0  0  0  0
108109  1  0  0  0  0
109110  1  0  0  0  0
110111  1  0  0  0  0
109112  2  0  0  0  0
112113  1  0  0  0  0
113114  1  0  0  0  0
112115  1  0  0  0  0
106116  2  0  0  0  0
116117  1  0  0  0  0
105118  1  0  0  0  0
118119  2  0  0  0  0
119120  1  0  0  0  0
119121  1  0  0  0  0
121122  2  0  0  0  0
122123  1  0  0  0  0
123124  1  0  0  0  0
124125  1  0  0  0  0
125126  1  0  0  0  0
126127  1  0  0  0  0
127128  2  0  0  0  0
128129  1  0  0  0  0
129130  1  0  0  0  0
130131  1  0  0  0  0
128132  1  0  0  0  0
132133  2  0  0  0  0
133134  1  0  0  0  0
134135  2  0  0  0  0
135136  1  0  0  0  0
136137  1  0  0  0  0
137138  1  0  0  0  0
138139  1  0  0  0  0
139140  1  0  0  0  0
138141  2  0  0  0  0
141142  1  0  0  0  0
141143  1  0  0  0  0
143144  1  0  0  0  0
135145  1  0  0  0  0
145146  2  0  0  0  0
146147  1  0  0  0  0
147148  1  0  0  0  0
148149  1  0  0  0  0
149150  1  0  0  0  0
150151  1  0  0  0  0
151152  1  0  0  0  0
150153  2  0  0  0  0
153154  1  0  0  0  0
154155  1  0  0  0  0
153156  1  0  0  0  0
147157  2  0  0  0  0
157158  1  0  0  0  0
146159  1  0  0  0  0
159160  2  0  0  0  0
160161  1  0  0  0  0
 27  1  1  0  0  0  0
 57 31  1  0  0  0  0
 87 61  1  0  0  0  0
117 91  1  0  0  0  0
129121  1  0  0  0  0
158132  1  0  0  0  0
 26  3  1  0  0  0  0
 56 33  1  0  0  0  0
 86 63  1  0  0  0  0
116 93  1  0  0  0  0
127122  1  0  0  0  0
157134  1  0  0  0  0
 12  5  2  0  0  0  0
 30 14  1  0  0  0  0
 42 35  2  0  0  0  0
 60 44  1  0  0  0  0
 72 65  2  0  0  0  0
 90 74  1  0  0  0  0
102 95  2  0  0  0  0
120104  1  0  0  0  0
143136  2  0  0  0  0
161145  1  0  0  0  0
 23 17  2  0  0  0  0
 53 47  2  0  0  0  0
 83 77  2  0  0  0  0
113107  2  0  0  0  0
154148  2  0  0  0  0
  1162  1  0  0  0  0
  2163  1  0  0  0  0
  8164  1  0  0  0  0
  8165  1  0  0  0  0
  9166  1  0  0  0  0
  9167  1  0  0  0  0
  9168  1  0  0  0  0
 20169  1  0  0  0  0
 20170  1  0  0  0  0
 21171  1  0  0  0  0
 21172  1  0  0  0  0
 21173  1  0  0  0  0
 28174  1  0  0  0  0
 32175  1  0  0  0  0
 38176  1  0  0  0  0
 38177  1  0  0  0  0
 39178  1  0  0  0  0
 39179  1  0  0  0  0
 39180  1  0  0  0  0
 50181  1  0  0  0  0
 50182  1  0  0  0  0
 51183  1  0  0  0  0
 51184  1  0  0  0  0
 51185  1  0  0  0  0
 58186  1  0  0  0  0
 62187  1  0  0  0  0
 68188  1  0  0  0  0
 68189  1  0  0  0  0
 69190  1  0  0  0  0
 69191  1  0  0  0  0
 69192  1  0  0  0  0
 80193  1  0  0  0  0
 80194  1  0  0  0  0
 81195  1  0  0  0  0
 81196  1  0  0  0  0
 81197  1  0  0  0  0
 88198  1  0  0  0  0
 92199  1  0  0  0  0
 98200  1  0  0  0  0
 98201  1  0  0  0  0
 99202  1  0  0  0  0
 99203  1  0  0  0  0
 99204  1  0  0  0  0
110205  1  0  0  0  0
110206  1  0  0  0  0
111207  1  0  0  0  0
111208  1  0  0  0  0
111209  1  0  0  0  0
118210  1  0  0  0  0
124211  1  0  0  0  0
124212  1  0  0  0  0
125213  1  0  0  0  0
125214  1  0  0  0  0
130215  1  0  0  0  0
131216  1  0  0  0  0
131217  1  0  0  0  0
131218  1  0  0  0  0
133219  1  0  0  0  0
139220  1  0  0  0  0
139221  1  0  0  0  0
140222  1  0  0  0  0
140223  1  0  0  0  0
140224  1  0  0  0  0
151225  1  0  0  0  0
151226  1  0  0  0  0
152227  1  0  0  0  0
152228  1  0  0  0  0
152229  1  0  0  0  0
159230  1  0  0  0  0
160231  1  0  0  0  0
M  END
