268

C         -4.42690        7.84100       16.88550
C         -3.22760        7.71790       16.28210
C         -3.22520        6.73760       15.24520
C         -2.15210        6.32820       14.44010
C         -0.83560        6.97390       14.50500
C          0.32810        6.21950       14.61860
C          1.57140        6.82070       14.63760
C          1.69700        8.20080       14.52860
S          3.21760        9.08980       14.53740
C          4.47520        7.82030       14.16050
C          4.36430        7.30080       12.74000
C          0.52040        8.94620       14.42960
F          0.60070       10.28880       14.33300
C         -0.72510        8.36050       14.41790
C         -2.40280        5.29610       13.54730
C         -3.67140        4.68190       13.40930
C         -4.74660        5.09400       14.21310
C         -6.06340        4.45710       14.09630
C         -7.22150        5.21220       13.92030
C         -8.44280        4.59460       13.75960
C         -8.56730        3.20590       13.78920
S        -10.19110        2.54010       13.58720
C         -9.94300        0.98950       12.64330
C         -9.21790        1.21870       11.33380
C         -7.41020        2.46810       14.02110
C         -6.17630        3.07140       14.15270
F         -7.45100        1.12020       14.12650
C         -4.49310        6.12090       15.11060
S         -5.63920        6.78370       16.24710
C         -3.68190        3.71820       12.36930
C         -2.47870        3.57690       11.74250
S         -1.25590        4.63830       12.41010
C         -2.16910        2.71040       10.64990
C         -3.01970        1.86710        9.99570
C         -2.41740        1.17590        8.91560
C         -3.01140        0.24390        8.04640
C         -4.43870       -0.08680        8.13610
C         -4.86900       -1.41180        8.18120
C         -6.21180       -1.71190        8.25380
C         -7.17990       -0.70900        8.28610
S         -8.86650       -1.21510        8.41780
C         -9.78630        0.06030        7.46440
C        -11.10360       -0.53150        7.00420
C         -6.73580        0.60950        8.25770
F         -7.61070        1.63950        8.32080
C         -5.39480        0.92350        8.17120
C         -2.18870       -0.32070        7.08440
C         -0.81710        0.00850        6.95190
C         -0.21930        0.92760        7.82930
C          1.21070        1.24250        7.72700
C          2.15670        0.21860        7.69360
C          3.49960        0.50650        7.57340
C          3.94820        1.82080        7.48220
S          5.69290        2.10310        7.34190
C          5.78470        3.25770        5.92310
C          5.21510        2.64000        4.66130
C          2.99760        2.83390        7.55420
C          1.64910        2.56090        7.66540
F          3.37260        4.12970        7.50780
C         -1.04440        1.50420        8.78170
S         -0.55390        2.67390        9.97670
C         -0.22950       -0.61850        5.82580
C         -1.09330       -1.40170        5.12070
S         -2.69550       -1.43110        5.83440
C         -0.82040       -2.09050        3.90340
C         -1.66080       -2.85290        3.15020
C         -1.08300       -3.31400        1.93760
C         -1.70400       -4.03260        0.90250
C         -3.07660       -4.53160        1.03880
C         -3.46340       -5.24580        2.16960
C         -4.75040       -5.72830        2.30870
C         -5.70180       -5.51300        1.31820
S         -7.38150       -6.03870        1.37200
C         -7.45660       -7.17640        2.79830
C         -6.78000       -8.50440        2.51510
C         -5.30060       -4.79270        0.19080
F         -6.20140       -4.55050       -0.78220
C         -4.02130       -4.31030        0.03820
C         -0.96020       -4.23520       -0.25420
C          0.37010       -3.77150       -0.39220
C          0.99640       -3.05270        0.63940
C          2.33550       -2.47710        0.46330
C          3.34140       -2.67180        1.40650
C          4.58800       -2.10780        1.23020
C          4.87680       -1.32850        0.11380
S          6.52160       -0.68920       -0.05870
C          6.23510        1.06780       -0.49100
C          5.47570        1.79690        0.59930
C          3.86650       -1.15160       -0.82530
C          2.61300       -1.70180       -0.65980
F          4.08570       -0.41890       -1.94210
C          0.25140       -2.85500        1.78800
S          0.76450       -1.91880        3.16710
C          0.91030       -4.10920       -1.65230
C          0.02760       -4.73870       -2.48450
S         -1.51710       -5.00790       -1.71860
C          0.37780       -4.93000       -3.88050
C          1.70390       -5.30510       -4.19130
S          2.67190       -6.34620       -3.16230
C          1.45670       -7.40660       -2.29940
C          0.48120       -8.08070       -3.24150
C          2.28460       -4.85650       -5.37040
S          3.99310       -5.25270       -5.70200
C          4.91480       -3.83330       -4.99820
C          4.52120       -3.46750       -3.58520
C          1.54690       -4.09720       -6.27310
C          0.16120       -3.98060       -6.10780
C         -0.43860       -4.46320       -4.92880
C         -1.90290       -4.54680       -4.79560
O         -2.43820       -5.25300       -3.95270
C         -2.66790       -3.83310       -5.81100
C         -2.04310       -3.20460       -6.92660
C         -0.59260       -3.21430       -7.11850
O         -0.04930       -2.59110       -8.01500
C         -2.95230       -2.61890       -7.76070
S         -4.56060       -2.81950       -7.20360
C         -4.02860       -3.70330       -5.83710
C          2.23750       -3.45620       -7.40530
C          2.35740       -4.12910       -8.63240
S          1.49820       -5.68060       -8.69300
C          2.61180       -6.92690       -9.44370
C          3.76870       -7.27750       -8.53150
C          2.90310       -3.45560       -9.72250
S          3.10130       -4.23510      -11.31080
C          4.86420       -4.74470      -11.12450
C          5.87460       -3.62360      -11.23050
C          3.34150       -2.13060       -9.58510
C          3.51050       -1.60540       -8.28500
C          2.85720       -2.21880       -7.20720
C          2.68730       -1.51840       -5.91190
O          2.04200       -1.97640       -4.98250
C          3.29960       -0.19080       -5.85000
C          4.16090        0.30470       -6.87200
C          4.46950       -0.50060       -8.05730
O          5.47610       -0.35160       -8.72480
C          4.64130        1.54860       -6.58850
S          4.04620        2.13550       -5.09000
C          3.16240        0.69810       -4.82030
C          3.42740       -1.17730      -10.66870
C          3.21070        0.15600      -10.46410
C          3.27910        0.94620      -11.63170
C          3.18440        2.34460      -11.71750
C          3.01330        3.13600      -10.49230
C          1.98530        2.85630       -9.59140
C          1.91090        3.51470       -8.38400
C          2.84570        4.48700       -8.02660
S          2.63490        5.24570       -6.44640
C          4.33270        5.73370       -5.94060
C          4.36290        5.89520       -4.43370
C          3.82760        4.79930       -8.96160
F          4.74090        5.76610       -8.71340
C          3.92480        4.13370      -10.16770
C          3.33270        2.89230      -12.98050
C          3.52930        2.10580      -14.14410
C          3.62040        0.70850      -14.05210
C          3.80770       -0.13510      -15.23840
C          4.80670       -1.10190      -15.27890
C          4.98150       -1.90730      -16.38800
C          4.15430       -1.77650      -17.49770
S          4.26240       -2.72660      -18.97360
C          5.61550       -3.90960      -18.62140
C          5.78100       -4.82520      -19.81980
C          3.15220       -0.80490      -17.44110
C          2.97100        0.00550      -16.34470
F          2.32930       -0.65420      -18.49960
C          3.52230        0.16000      -12.78040
S          3.61940       -1.53290      -12.36810
C          3.65680        2.92370      -15.30710
C          3.53890        4.24010      -15.04210
S          3.27410        4.59260      -13.36810
H         -4.69580        8.49940       17.68830
H         -2.35760        8.28250       16.56380
H          0.26230        5.14650       14.71400
H          2.44610        6.20020       14.74380
H          4.40540        7.02580       14.90250
H          5.41710        8.34880       14.30800
H          3.40860        6.80750       12.57520
H          5.16160        6.58630       12.54440
H          4.45220        8.12200       12.03250
H         -1.59890        8.98360       14.30890
H         -7.15680        6.28810       13.87520
H         -9.33370        5.18150       13.59970
H        -10.96240        0.64380       12.47080
H         -9.42740        0.26850       13.27380
H         -8.19720        1.55570       11.50420
H         -9.73030        1.96960       10.73580
H         -9.18020        0.28540       10.77560
H         -5.31230        2.45050       14.33460
H         -4.56110        3.17010       12.08600
H         -4.04580        1.73070       10.28190
H         -4.14320       -2.21000        8.16970
H         -6.54100       -2.73860        8.28930
H         -9.94570        0.92410        8.10770
H         -9.16110        0.33940        6.61780
H        -11.66060        0.21190        6.43810
H        -10.93330       -1.39890        6.37050
H        -11.70240       -0.84010        7.85810
H         -5.10890        1.96290        8.11980
H          1.83320       -0.80810        7.77270
H          4.22970       -0.28720        7.54360
H          5.27930        4.18350        6.18850
H          6.85180        3.45230        5.81980
H          5.72540        1.70710        4.43060
H          4.15270        2.43120        4.77710
H          5.34150        3.32630        3.82610
H          0.95240        3.38400        7.69430
H          0.79170       -0.46710        5.52440
H         -2.68020       -3.04300        3.43570
H         -2.73950       -5.44720        2.94500
H         -5.00510       -6.27170        3.20390
H         -7.04140       -6.67130        3.66950
H         -8.52620       -7.31420        2.95660
H         -5.72270       -8.36840        2.29820
H         -7.24470       -8.98560        1.65790
H         -6.87730       -9.16080        3.37790
H         -3.77720       -3.75080       -0.85040
H          3.14660       -3.27760        2.27780
H          5.36680       -2.26400        1.96010
H          7.24230        1.46820       -0.60510
H          5.72380        1.11890       -1.44970
H          5.37980        2.84940        0.33960
H          6.00250        1.71650        1.54760
H          4.47790        1.37910        0.72340
H          1.85890       -1.51590       -1.40910
H          1.91290       -3.85910       -1.94650
H          0.94880       -6.82200       -1.53430
H          2.09900       -8.14130       -1.81240
H         -0.10190       -8.81630       -2.69120
H         -0.20950       -7.36150       -3.67760
H          1.01220       -8.58560       -4.04580
H          5.94960       -4.17200       -5.04680
H          4.78600       -2.98830       -5.67690
H          4.59960       -4.32890       -2.92610
H          5.18450       -2.68470       -3.22150
H          3.50050       -3.08860       -3.56390
H         -2.74950       -2.09090       -8.67140
H         -4.73050       -4.07750       -5.11790
H          2.93210       -6.57130      -10.41870
H          1.94940       -7.78210       -9.57890
H          4.38690       -6.40740       -8.32290
H          3.40430       -7.65290       -7.57850
H          4.38530       -8.04310       -8.99840
H          4.94650       -5.25050      -10.16360
H          5.00110       -5.47010      -11.92610
H          5.70560       -2.86250      -10.47090
H          6.87290       -4.03250      -11.08280
H          5.83130       -3.15650      -12.21050
H          5.29660        2.14350       -7.19340
H          2.59030        0.57090       -3.92360
H          2.99660        0.57850       -9.49960
H          1.23850        2.11910       -9.84480
H          1.12340        3.28350       -7.68310
H          4.58750        6.66600       -6.44170
H          5.00780        4.94260       -6.26290
H          4.09560        4.96100       -3.94510
H          3.66130        6.66440       -4.11940
H          5.36240        6.18470       -4.11700
H          4.72730        4.39490      -10.83950
H          5.47480       -1.21200      -14.43870
H          5.77320       -2.63820      -16.38100
H          6.52630       -3.33840      -18.44040
H          5.34170       -4.47700      -17.73180
H          6.02780       -4.24820      -20.70790
H          6.58050       -5.53900      -19.63290
H          4.86070       -5.37230      -20.01010
H          2.16540        0.72300      -16.34690
H          3.84370        2.52950      -16.28930
H          3.59590        5.05880      -15.73250
