
  xtb     03012214453D
 energy: -446.549342541627 gnorm: 0.000216183643 xtb: 6.4.1 (unknown)
222248  0     0  0            999 V2000
    1.1828   -4.1286   10.3681 C   0  0  0  0  0  0  0  0  0  0  0  0
    1.9985   -4.1350    9.2944 C   0  0  0  0  0  0  0  0  0  0  0  0
    1.3301   -4.5185    8.0950 C   0  0  0  0  0  0  0  0  0  0  0  0
    1.8562   -4.5961    6.7953 C   0  0  0  0  0  0  0  0  0  0  0  0
    3.2056   -4.1234    6.5256 C   0  0  0  0  0  0  0  0  0  0  0  0
    4.4211   -5.1039    5.7640 S   0  0  0  0  0  0  0  0  0  0  0  0
    5.6140   -3.8478    5.8701 C   0  0  0  0  0  0  0  0  0  0  0  0
    7.0098   -4.0602    5.3967 C   0  0  0  0  0  0  0  0  0  0  0  0
    7.1123   -4.0443    3.8717 C   0  0  0  0  0  0  0  0  0  0  0  0
    5.0737   -2.7342    6.4389 C   0  0  0  0  0  0  0  0  0  0  0  0
    5.9240   -1.2663    6.6963 Cl  0  0  0  0  0  0  0  0  0  0  0  0
    3.7146   -2.8903    6.8236 C   0  0  0  0  0  0  0  0  0  0  0  0
    2.8203   -1.6203    7.5489 Cl  0  0  0  0  0  0  0  0  0  0  0  0
    1.0056   -5.0510    5.7970 C   0  0  0  0  0  0  0  0  0  0  0  0
   -0.3618   -5.3362    6.0319 C   0  0  0  0  0  0  0  0  0  0  0  0
   -0.8979   -5.2282    7.3252 C   0  0  0  0  0  0  0  0  0  0  0  0
   -2.3059   -5.4879    7.5804 C   0  0  0  0  0  0  0  0  0  0  0  0
   -3.5488   -4.6495    6.6970 S   0  0  0  0  0  0  0  0  0  0  0  0
   -4.8158   -5.4610    7.5516 C   0  0  0  0  0  0  0  0  0  0  0  0
   -6.2464   -5.1490    7.2829 C   0  0  0  0  0  0  0  0  0  0  0  0
   -6.6835   -3.8885    8.0328 C   0  0  0  0  0  0  0  0  0  0  0  0
   -4.2910   -6.3199    8.4699 C   0  0  0  0  0  0  0  0  0  0  0  0
   -2.8697   -6.3406    8.4876 C   0  0  0  0  0  0  0  0  0  0  0  0
   -1.9802   -7.4044    9.4937 Cl  0  0  0  0  0  0  0  0  0  0  0  0
   -5.2359   -7.3053    9.5091 Cl  0  0  0  0  0  0  0  0  0  0  0  0
   -0.0280   -4.8366    8.3355 C   0  0  0  0  0  0  0  0  0  0  0  0
   -0.4420   -4.5957   10.0082 S   0  0  0  0  0  0  0  0  0  0  0  0
   -1.0412   -5.6782    4.8372 C   0  0  0  0  0  0  0  0  0  0  0  0
   -0.2465   -5.6626    3.7312 C   0  0  0  0  0  0  0  0  0  0  0  0
    1.4146   -5.2596    4.1169 S   0  0  0  0  0  0  0  0  0  0  0  0
   -0.6791   -5.8035    2.3775 C   0  0  0  0  0  0  0  0  0  0  0  0
    0.0585   -5.9668    1.2433 C   0  0  0  0  0  0  0  0  0  0  0  0
   -0.7083   -5.8799    0.0521 C   0  0  0  0  0  0  0  0  0  0  0  0
   -0.2636   -5.8866   -1.2834 C   0  0  0  0  0  0  0  0  0  0  0  0
    1.1195   -6.1491   -1.6409 C   0  0  0  0  0  0  0  0  0  0  0  0
    2.4442   -5.3122   -0.8901 S   0  0  0  0  0  0  0  0  0  0  0  0
    3.6214   -6.1243   -1.8644 C   0  0  0  0  0  0  0  0  0  0  0  0
    5.0802   -5.8871   -1.6831 C   0  0  0  0  0  0  0  0  0  0  0  0
    5.6509   -6.7915   -0.5875 C   0  0  0  0  0  0  0  0  0  0  0  0
    3.0076   -6.9996   -2.7096 C   0  0  0  0  0  0  0  0  0  0  0  0
    3.8463   -7.9993   -3.8233 Cl  0  0  0  0  0  0  0  0  0  0  0  0
    1.5916   -7.0105   -2.5936 C   0  0  0  0  0  0  0  0  0  0  0  0
    0.6062   -8.0718   -3.5089 Cl  0  0  0  0  0  0  0  0  0  0  0  0
   -1.1973   -5.5584   -2.2607 C   0  0  0  0  0  0  0  0  0  0  0  0
   -2.5592   -5.2934   -1.9730 C   0  0  0  0  0  0  0  0  0  0  0  0
   -3.0253   -5.3811   -0.6504 C   0  0  0  0  0  0  0  0  0  0  0  0
   -4.3879   -5.0339   -0.2797 C   0  0  0  0  0  0  0  0  0  0  0  0
   -5.0679   -3.4940   -0.7251 S   0  0  0  0  0  0  0  0  0  0  0  0
   -6.5132   -3.7792    0.1847 C   0  0  0  0  0  0  0  0  0  0  0  0
   -7.6020   -2.7647    0.2241 C   0  0  0  0  0  0  0  0  0  0  0  0
   -8.3216   -2.6639   -1.1213 C   0  0  0  0  0  0  0  0  0  0  0  0
   -6.4647   -5.0057    0.7754 C   0  0  0  0  0  0  0  0  0  0  0  0
   -5.2588   -5.7157    0.5229 C   0  0  0  0  0  0  0  0  0  0  0  0
   -4.9801   -7.2965    1.1219 Cl  0  0  0  0  0  0  0  0  0  0  0  0
   -7.7161   -5.6500    1.7566 Cl  0  0  0  0  0  0  0  0  0  0  0  0
   -2.0811   -5.6606    0.3293 C   0  0  0  0  0  0  0  0  0  0  0  0
   -2.3865   -5.6059    2.0389 S   0  0  0  0  0  0  0  0  0  0  0  0
   -3.2591   -4.8176   -3.1058 C   0  0  0  0  0  0  0  0  0  0  0  0
   -2.4635   -4.6417   -4.2034 C   0  0  0  0  0  0  0  0  0  0  0  0
   -0.8297   -5.2018   -3.9261 S   0  0  0  0  0  0  0  0  0  0  0  0
   -2.7938   -3.8247   -5.3298 C   0  0  0  0  0  0  0  0  0  0  0  0
   -4.0250   -3.3107   -5.6261 C   0  0  0  0  0  0  0  0  0  0  0  0
   -3.9738   -2.1509   -6.4366 C   0  0  0  0  0  0  0  0  0  0  0  0
   -5.0030   -1.2160   -6.6680 C   0  0  0  0  0  0  0  0  0  0  0  0
   -6.4037   -1.4737   -6.3889 C   0  0  0  0  0  0  0  0  0  0  0  0
   -6.9961   -2.1651   -4.9073 S   0  0  0  0  0  0  0  0  0  0  0  0
   -8.6482   -2.0673   -5.4217 C   0  0  0  0  0  0  0  0  0  0  0  0
   -9.7569   -2.5752   -4.5689 C   0  0  0  0  0  0  0  0  0  0  0  0
   -9.7107   -4.0993   -4.4498 C   0  0  0  0  0  0  0  0  0  0  0  0
   -8.7191   -1.5330   -6.6726 C   0  0  0  0  0  0  0  0  0  0  0  0
  -10.1836   -1.2874   -7.5320 Cl  0  0  0  0  0  0  0  0  0  0  0  0
   -7.4546   -1.1858   -7.2184 C   0  0  0  0  0  0  0  0  0  0  0  0
   -7.2875   -0.5492   -8.7999 Cl  0  0  0  0  0  0  0  0  0  0  0  0
   -4.6063    0.0450   -7.0987 C   0  0  0  0  0  0  0  0  0  0  0  0
   -3.2788    0.3469   -7.4871 C   0  0  0  0  0  0  0  0  0  0  0  0
   -2.2780   -0.6343   -7.3929 C   0  0  0  0  0  0  0  0  0  0  0  0
   -0.8816   -0.3044   -7.6579 C   0  0  0  0  0  0  0  0  0  0  0  0
    0.0333   -1.1109   -8.8926 S   0  0  0  0  0  0  0  0  0  0  0  0
    1.4545   -0.1841   -8.5533 C   0  0  0  0  0  0  0  0  0  0  0  0
    2.6986   -0.3442   -9.3554 C   0  0  0  0  0  0  0  0  0  0  0  0
    2.7101    0.6194  -10.5446 C   0  0  0  0  0  0  0  0  0  0  0  0
    1.2148    0.6952   -7.5398 C   0  0  0  0  0  0  0  0  0  0  0  0
   -0.1056    0.6240   -7.0217 C   0  0  0  0  0  0  0  0  0  0  0  0
   -0.6244    1.5802   -5.6853 Cl  0  0  0  0  0  0  0  0  0  0  0  0
    2.3811    1.7915   -6.9265 Cl  0  0  0  0  0  0  0  0  0  0  0  0
   -2.6438   -1.8416   -6.8200 C   0  0  0  0  0  0  0  0  0  0  0  0
   -1.5131   -3.0216   -6.2189 S   0  0  0  0  0  0  0  0  0  0  0  0
   -3.0658    1.7375   -7.6265 C   0  0  0  0  0  0  0  0  0  0  0  0
   -4.1168    2.4883   -7.1728 C   0  0  0  0  0  0  0  0  0  0  0  0
   -5.5431    1.5041   -6.8976 S   0  0  0  0  0  0  0  0  0  0  0  0
   -3.9391    3.7405   -6.5015 C   0  0  0  0  0  0  0  0  0  0  0  0
   -2.7697    4.4469   -6.4433 C   0  0  0  0  0  0  0  0  0  0  0  0
   -2.5864    5.1344   -5.2194 C   0  0  0  0  0  0  0  0  0  0  0  0
   -1.3651    5.6274   -4.7181 C   0  0  0  0  0  0  0  0  0  0  0  0
   -0.2266    5.7785   -5.6031 C   0  0  0  0  0  0  0  0  0  0  0  0
    1.3280    5.0955   -5.2291 S   0  0  0  0  0  0  0  0  0  0  0  0
    2.0045    5.6161   -6.7323 C   0  0  0  0  0  0  0  0  0  0  0  0
    3.4381    5.3787   -7.0546 C   0  0  0  0  0  0  0  0  0  0  0  0
    4.3212    6.4627   -6.4323 C   0  0  0  0  0  0  0  0  0  0  0  0
    1.0732    6.2896   -7.4666 C   0  0  0  0  0  0  0  0  0  0  0  0
    1.3813    6.9698   -9.0123 Cl  0  0  0  0  0  0  0  0  0  0  0  0
   -0.1954    6.3740   -6.8361 C   0  0  0  0  0  0  0  0  0  0  0  0
   -1.5231    7.2084   -7.5343 Cl  0  0  0  0  0  0  0  0  0  0  0  0
   -1.2809    5.7916   -3.3418 C   0  0  0  0  0  0  0  0  0  0  0  0
   -2.3757    5.5765   -2.4657 C   0  0  0  0  0  0  0  0  0  0  0  0
   -3.6352    5.2291   -2.9891 C   0  0  0  0  0  0  0  0  0  0  0  0
   -4.7917    4.9556   -2.1538 C   0  0  0  0  0  0  0  0  0  0  0  0
   -4.7186    3.8585   -0.8055 S   0  0  0  0  0  0  0  0  0  0  0  0
   -6.4195    3.9832   -0.5090 C   0  0  0  0  0  0  0  0  0  0  0  0
   -7.0754    3.1835    0.5623 C   0  0  0  0  0  0  0  0  0  0  0  0
   -7.3872    1.7661    0.0745 C   0  0  0  0  0  0  0  0  0  0  0  0
   -6.9963    4.8289   -1.4086 C   0  0  0  0  0  0  0  0  0  0  0  0
   -6.0791    5.3778   -2.3443 C   0  0  0  0  0  0  0  0  0  0  0  0
   -6.5500    6.5061   -3.5446 Cl  0  0  0  0  0  0  0  0  0  0  0  0
   -8.6685    5.2102   -1.4279 Cl  0  0  0  0  0  0  0  0  0  0  0  0
   -3.6964    4.9804   -4.3551 C   0  0  0  0  0  0  0  0  0  0  0  0
   -4.9867    4.1090   -5.1388 S   0  0  0  0  0  0  0  0  0  0  0  0
   -1.9781    5.6071   -1.1071 C   0  0  0  0  0  0  0  0  0  0  0  0
   -0.6360    5.7997   -0.9425 C   0  0  0  0  0  0  0  0  0  0  0  0
    0.1880    6.1011   -2.4558 S   0  0  0  0  0  0  0  0  0  0  0  0
    0.1032    5.5339    0.2469 C   0  0  0  0  0  0  0  0  0  0  0  0
    1.8437    5.7358    0.3749 S   0  0  0  0  0  0  0  0  0  0  0  0
    1.9518    4.7945    1.8573 C   0  0  0  0  0  0  0  0  0  0  0  0
    0.6916    4.4222    2.2203 C   0  0  0  0  0  0  0  0  0  0  0  0
   -0.3298    4.8463    1.3472 C   0  0  0  0  0  0  0  0  0  0  0  0
   -1.5320    4.3866    1.7927 O   0  0  0  0  0  0  0  0  0  0  0  0
   -1.2416    3.6631    2.9771 C   0  0  0  0  0  0  0  0  0  0  0  0
    0.1509    3.6853    3.2306 O   0  0  0  0  0  0  0  0  0  0  0  0
    3.1966    4.3727    2.4285 C   0  0  0  0  0  0  0  0  0  0  0  0
    3.4560    3.1175    2.8851 C   0  0  0  0  0  0  0  0  0  0  0  0
    4.7892    2.9453    3.3380 C   0  0  0  0  0  0  0  0  0  0  0  0
    5.4083    1.7654    3.7859 C   0  0  0  0  0  0  0  0  0  0  0  0
    4.6777    0.5083    3.7950 C   0  0  0  0  0  0  0  0  0  0  0  0
    5.2744   -0.8322    2.8622 S   0  0  0  0  0  0  0  0  0  0  0  0
    3.8620   -1.7814    3.1684 C   0  0  0  0  0  0  0  0  0  0  0  0
    3.6844   -3.1335    2.5714 C   0  0  0  0  0  0  0  0  0  0  0  0
    4.4326   -3.2912    1.2546 C   0  0  0  0  0  0  0  0  0  0  0  0
    3.0033   -1.0973    3.9764 C   0  0  0  0  0  0  0  0  0  0  0  0
    1.4829   -1.7188    4.4785 Cl  0  0  0  0  0  0  0  0  0  0  0  0
    3.4608    0.1999    4.3358 C   0  0  0  0  0  0  0  0  0  0  0  0
    2.5777    1.2370    5.3814 Cl  0  0  0  0  0  0  0  0  0  0  0  0
    6.7619    1.8433    4.0900 C   0  0  0  0  0  0  0  0  0  0  0  0
    7.5048    3.0445    4.0012 C   0  0  0  0  0  0  0  0  0  0  0  0
    6.8827    4.2236    3.5631 C   0  0  0  0  0  0  0  0  0  0  0  0
    7.6173    5.4748    3.4641 C   0  0  0  0  0  0  0  0  0  0  0  0
    7.6715    6.3811    1.9824 S   0  0  0  0  0  0  0  0  0  0  0  0
    8.6609    7.6153    2.6845 C   0  0  0  0  0  0  0  0  0  0  0  0
    9.0651    8.8134    1.8988 C   0  0  0  0  0  0  0  0  0  0  0  0
    7.9241    9.8312    1.8327 C   0  0  0  0  0  0  0  0  0  0  0  0
    8.9149    7.3334    3.9935 C   0  0  0  0  0  0  0  0  0  0  0  0
    8.3308    6.1164    4.4372 C   0  0  0  0  0  0  0  0  0  0  0  0
    8.4573    5.5641    6.0577 Cl  0  0  0  0  0  0  0  0  0  0  0  0
    9.8529    8.3330    5.0263 Cl  0  0  0  0  0  0  0  0  0  0  0  0
    5.5416    4.1376    3.2127 C   0  0  0  0  0  0  0  0  0  0  0  0
    4.5817    5.4318    2.5479 S   0  0  0  0  0  0  0  0  0  0  0  0
    8.8759    2.8406    4.3350 C   0  0  0  0  0  0  0  0  0  0  0  0
    9.1473    1.5639    4.6723 C   0  0  0  0  0  0  0  0  0  0  0  0
    7.7696    0.5216    4.6066 S   0  0  0  0  0  0  0  0  0  0  0  0
    1.4311   -3.8808   11.3816 H   0  0  0  0  0  0  0  0  0  0  0  0
    3.0439   -3.8911    9.3383 H   0  0  0  0  0  0  0  0  0  0  0  0
    7.6338   -3.2671    5.8115 H   0  0  0  0  0  0  0  0  0  0  0  0
    7.3704   -5.0208    5.7714 H   0  0  0  0  0  0  0  0  0  0  0  0
    6.8048   -3.0756    3.4870 H   0  0  0  0  0  0  0  0  0  0  0  0
    6.4802   -4.8175    3.4416 H   0  0  0  0  0  0  0  0  0  0  0  0
    8.1398   -4.2267    3.5692 H   0  0  0  0  0  0  0  0  0  0  0  0
   -6.3894   -5.0012    6.2108 H   0  0  0  0  0  0  0  0  0  0  0  0
   -6.8546   -5.9963    7.6042 H   0  0  0  0  0  0  0  0  0  0  0  0
   -6.5630   -4.0268    9.1042 H   0  0  0  0  0  0  0  0  0  0  0  0
   -6.0821   -3.0375    7.7219 H   0  0  0  0  0  0  0  0  0  0  0  0
   -7.7281   -3.6735    7.8243 H   0  0  0  0  0  0  0  0  0  0  0  0
   -2.0884   -5.9161    4.7907 H   0  0  0  0  0  0  0  0  0  0  0  0
    1.1231   -6.1126    1.2660 H   0  0  0  0  0  0  0  0  0  0  0  0
    5.2500   -4.8419   -1.4199 H   0  0  0  0  0  0  0  0  0  0  0  0
    5.5865   -6.0976   -2.6267 H   0  0  0  0  0  0  0  0  0  0  0  0
    5.1474   -6.6091    0.3590 H   0  0  0  0  0  0  0  0  0  0  0  0
    6.7124   -6.5977   -0.4603 H   0  0  0  0  0  0  0  0  0  0  0  0
    5.5166   -7.8364   -0.8549 H   0  0  0  0  0  0  0  0  0  0  0  0
   -8.3106   -3.0485    1.0038 H   0  0  0  0  0  0  0  0  0  0  0  0
   -7.1775   -1.7904    0.4762 H   0  0  0  0  0  0  0  0  0  0  0  0
   -8.7786   -3.6169   -1.3751 H   0  0  0  0  0  0  0  0  0  0  0  0
   -9.0988   -1.9061   -1.0661 H   0  0  0  0  0  0  0  0  0  0  0  0
   -7.6179   -2.3920   -1.9056 H   0  0  0  0  0  0  0  0  0  0  0  0
   -4.2937   -4.5317   -3.0840 H   0  0  0  0  0  0  0  0  0  0  0  0
   -4.9330   -3.6949   -5.2016 H   0  0  0  0  0  0  0  0  0  0  0  0
   -9.6843   -2.1332   -3.5736 H   0  0  0  0  0  0  0  0  0  0  0  0
  -10.7024   -2.2678   -5.0181 H   0  0  0  0  0  0  0  0  0  0  0  0
   -9.8049   -4.5578   -5.4309 H   0  0  0  0  0  0  0  0  0  0  0  0
  -10.5265   -4.4497   -3.8234 H   0  0  0  0  0  0  0  0  0  0  0  0
   -8.7682   -4.4145   -4.0083 H   0  0  0  0  0  0  0  0  0  0  0  0
    3.5584   -0.1401   -8.7140 H   0  0  0  0  0  0  0  0  0  0  0  0
    2.7660   -1.3713   -9.7167 H   0  0  0  0  0  0  0  0  0  0  0  0
    2.6491    1.6474  -10.1965 H   0  0  0  0  0  0  0  0  0  0  0  0
    1.8645    0.4223  -11.1990 H   0  0  0  0  0  0  0  0  0  0  0  0
    3.6276    0.4982  -11.1139 H   0  0  0  0  0  0  0  0  0  0  0  0
   -2.1177    2.1603   -7.8974 H   0  0  0  0  0  0  0  0  0  0  0  0
   -1.9998    4.3680   -7.1880 H   0  0  0  0  0  0  0  0  0  0  0  0
    3.5597    5.3828   -8.1394 H   0  0  0  0  0  0  0  0  0  0  0  0
    3.7388    4.4022   -6.6719 H   0  0  0  0  0  0  0  0  0  0  0  0
    4.2077    6.4657   -5.3509 H   0  0  0  0  0  0  0  0  0  0  0  0
    5.3643    6.2783   -6.6745 H   0  0  0  0  0  0  0  0  0  0  0  0
    4.0421    7.4413   -6.8145 H   0  0  0  0  0  0  0  0  0  0  0  0
   -6.4164    3.1313    1.4309 H   0  0  0  0  0  0  0  0  0  0  0  0
   -8.0015    3.6822    0.8534 H   0  0  0  0  0  0  0  0  0  0  0  0
   -8.0528    1.8021   -0.7840 H   0  0  0  0  0  0  0  0  0  0  0  0
   -7.8685    1.1978    0.8663 H   0  0  0  0  0  0  0  0  0  0  0  0
   -6.4713    1.2576   -0.2178 H   0  0  0  0  0  0  0  0  0  0  0  0
   -2.6362    5.4220   -0.2791 H   0  0  0  0  0  0  0  0  0  0  0  0
   -1.5730    2.6206    2.8564 H   0  0  0  0  0  0  0  0  0  0  0  0
   -1.7757    4.1208    3.8238 H   0  0  0  0  0  0  0  0  0  0  0  0
    2.7221    2.3346    2.8592 H   0  0  0  0  0  0  0  0  0  0  0  0
    2.6167   -3.3013    2.4158 H   0  0  0  0  0  0  0  0  0  0  0  0
    4.0303   -3.8914    3.2799 H   0  0  0  0  0  0  0  0  0  0  0  0
    5.4984   -3.1304    1.3961 H   0  0  0  0  0  0  0  0  0  0  0  0
    4.0683   -2.5754    0.5226 H   0  0  0  0  0  0  0  0  0  0  0  0
    4.2764   -4.2923    0.8653 H   0  0  0  0  0  0  0  0  0  0  0  0
    9.3369    8.5088    0.8865 H   0  0  0  0  0  0  0  0  0  0  0  0
    9.9364    9.2667    2.3745 H   0  0  0  0  0  0  0  0  0  0  0  0
    7.0513    9.3878    1.3594 H   0  0  0  0  0  0  0  0  0  0  0  0
    8.2316   10.7001    1.2572 H   0  0  0  0  0  0  0  0  0  0  0  0
    7.6497   10.1553    2.8334 H   0  0  0  0  0  0  0  0  0  0  0  0
    9.6146    3.6198    4.3066 H   0  0  0  0  0  0  0  0  0  0  0  0
   10.0912    1.1461    4.9632 H   0  0  0  0  0  0  0  0  0  0  0  0
  1  2  2  0  0  0  0
  2  3  1  0  0  0  0
  3  4  2  0  0  0  0
  4  5  1  0  0  0  0
  5  6  1  0  0  0  0
  6  7  1  0  0  0  0
  7  8  1  0  0  0  0
  8  9  1  0  0  0  0
  7 10  2  0  0  0  0
 10 11  1  0  0  0  0
 10 12  1  0  0  0  0
 12 13  1  0  0  0  0
  4 14  1  0  0  0  0
 14 15  2  0  0  0  0
 15 16  1  0  0  0  0
 16 17  1  0  0  0  0
 17 18  1  0  0  0  0
 18 19  1  0  0  0  0
 19 20  1  0  0  0  0
 20 21  1  0  0  0  0
 19 22  2  0  0  0  0
 22 23  1  0  0  0  0
 23 24  1  0  0  0  0
 22 25  1  0  0  0  0
 16 26  2  0  0  0  0
 26 27  1  0  0  0  0
 15 28  1  0  0  0  0
 28 29  2  0  0  0  0
 29 30  1  0  0  0  0
 29 31  1  0  0  0  0
 31 32  2  0  0  0  0
 32 33  1  0  0  0  0
 33 34  2  0  0  0  0
 34 35  1  0  0  0  0
 35 36  1  0  0  0  0
 36 37  1  0  0  0  0
 37 38  1  0  0  0  0
 38 39  1  0  0  0  0
 37 40  2  0  0  0  0
 40 41  1  0  0  0  0
 40 42  1  0  0  0  0
 42 43  1  0  0  0  0
 34 44  1  0  0  0  0
 44 45  2  0  0  0  0
 45 46  1  0  0  0  0
 46 47  1  0  0  0  0
 47 48  1  0  0  0  0
 48 49  1  0  0  0  0
 49 50  1  0  0  0  0
 50 51  1  0  0  0  0
 49 52  2  0  0  0  0
 52 53  1  0  0  0  0
 53 54  1  0  0  0  0
 52 55  1  0  0  0  0
 46 56  2  0  0  0  0
 56 57  1  0  0  0  0
 45 58  1  0  0  0  0
 58 59  2  0  0  0  0
 59 60  1  0  0  0  0
 59 61  1  0  0  0  0
 61 62  2  0  0  0  0
 62 63  1  0  0  0  0
 63 64  2  0  0  0  0
 64 65  1  0  0  0  0
 65 66  1  0  0  0  0
 66 67  1  0  0  0  0
 67 68  1  0  0  0  0
 68 69  1  0  0  0  0
 67 70  2  0  0  0  0
 70 71  1  0  0  0  0
 70 72  1  0  0  0  0
 72 73  1  0  0  0  0
 64 74  1  0  0  0  0
 74 75  2  0  0  0  0
 75 76  1  0  0  0  0
 76 77  1  0  0  0  0
 77 78  1  0  0  0  0
 78 79  1  0  0  0  0
 79 80  1  0  0  0  0
 80 81  1  0  0  0  0
 79 82  2  0  0  0  0
 82 83  1  0  0  0  0
 83 84  1  0  0  0  0
 82 85  1  0  0  0  0
 76 86  2  0  0  0  0
 86 87  1  0  0  0  0
 75 88  1  0  0  0  0
 88 89  2  0  0  0  0
 89 90  1  0  0  0  0
 89 91  1  0  0  0  0
 91 92  2  0  0  0  0
 92 93  1  0  0  0  0
 93 94  2  0  0  0  0
 94 95  1  0  0  0  0
 95 96  1  0  0  0  0
 96 97  1  0  0  0  0
 97 98  1  0  0  0  0
 98 99  1  0  0  0  0
 97100  2  0  0  0  0
100101  1  0  0  0  0
100102  1  0  0  0  0
102103  1  0  0  0  0
 94104  1  0  0  0  0
104105  2  0  0  0  0
105106  1  0  0  0  0
106107  1  0  0  0  0
107108  1  0  0  0  0
108109  1  0  0  0  0
109110  1  0  0  0  0
110111  1  0  0  0  0
109112  2  0  0  0  0
112113  1  0  0  0  0
113114  1  0  0  0  0
112115  1  0  0  0  0
106116  2  0  0  0  0
116117  1  0  0  0  0
105118  1  0  0  0  0
118119  2  0  0  0  0
119120  1  0  0  0  0
119121  1  0  0  0  0
121122  1  0  0  0  0
122123  1  0  0  0  0
123124  2  0  0  0  0
124125  1  0  0  0  0
125126  1  0  0  0  0
126127  1  0  0  0  0
127128  1  0  0  0  0
123129  1  0  0  0  0
129130  2  0  0  0  0
130131  1  0  0  0  0
131132  2  0  0  0  0
132133  1  0  0  0  0
133134  1  0  0  0  0
134135  1  0  0  0  0
135136  1  0  0  0  0
136137  1  0  0  0  0
135138  2  0  0  0  0
138139  1  0  0  0  0
138140  1  0  0  0  0
140141  1  0  0  0  0
132142  1  0  0  0  0
142143  2  0  0  0  0
143144  1  0  0  0  0
144145  1  0  0  0  0
145146  1  0  0  0  0
146147  1  0  0  0  0
147148  1  0  0  0  0
148149  1  0  0  0  0
147150  2  0  0  0  0
150151  1  0  0  0  0
151152  1  0  0  0  0
150153  1  0  0  0  0
144154  2  0  0  0  0
154155  1  0  0  0  0
143156  1  0  0  0  0
156157  2  0  0  0  0
157158  1  0  0  0  0
 27  1  1  0  0  0  0
 57 31  1  0  0  0  0
 87 61  1  0  0  0  0
117 91  1  0  0  0  0
125121  2  0  0  0  0
155129  1  0  0  0  0
 26  3  1  0  0  0  0
 56 33  1  0  0  0  0
 86 63  1  0  0  0  0
116 93  1  0  0  0  0
128124  1  0  0  0  0
154131  1  0  0  0  0
 12  5  2  0  0  0  0
 30 14  1  0  0  0  0
 42 35  2  0  0  0  0
 60 44  1  0  0  0  0
 72 65  2  0  0  0  0
 90 74  1  0  0  0  0
102 95  2  0  0  0  0
120104  1  0  0  0  0
140133  2  0  0  0  0
158142  1  0  0  0  0
 23 17  2  0  0  0  0
 53 47  2  0  0  0  0
 83 77  2  0  0  0  0
113107  2  0  0  0  0
151145  2  0  0  0  0
  1159  1  0  0  0  0
  2160  1  0  0  0  0
  8161  1  0  0  0  0
  8162  1  0  0  0  0
  9163  1  0  0  0  0
  9164  1  0  0  0  0
  9165  1  0  0  0  0
 20166  1  0  0  0  0
 20167  1  0  0  0  0
 21168  1  0  0  0  0
 21169  1  0  0  0  0
 21170  1  0  0  0  0
 28171  1  0  0  0  0
 32172  1  0  0  0  0
 38173  1  0  0  0  0
 38174  1  0  0  0  0
 39175  1  0  0  0  0
 39176  1  0  0  0  0
 39177  1  0  0  0  0
 50178  1  0  0  0  0
 50179  1  0  0  0  0
 51180  1  0  0  0  0
 51181  1  0  0  0  0
 51182  1  0  0  0  0
 58183  1  0  0  0  0
 62184  1  0  0  0  0
 68185  1  0  0  0  0
 68186  1  0  0  0  0
 69187  1  0  0  0  0
 69188  1  0  0  0  0
 69189  1  0  0  0  0
 80190  1  0  0  0  0
 80191  1  0  0  0  0
 81192  1  0  0  0  0
 81193  1  0  0  0  0
 81194  1  0  0  0  0
 88195  1  0  0  0  0
 92196  1  0  0  0  0
 98197  1  0  0  0  0
 98198  1  0  0  0  0
 99199  1  0  0  0  0
 99200  1  0  0  0  0
 99201  1  0  0  0  0
110202  1  0  0  0  0
110203  1  0  0  0  0
111204  1  0  0  0  0
111205  1  0  0  0  0
111206  1  0  0  0  0
118207  1  0  0  0  0
127208  1  0  0  0  0
127209  1  0  0  0  0
130210  1  0  0  0  0
136211  1  0  0  0  0
136212  1  0  0  0  0
137213  1  0  0  0  0
137214  1  0  0  0  0
137215  1  0  0  0  0
148216  1  0  0  0  0
148217  1  0  0  0  0
149218  1  0  0  0  0
149219  1  0  0  0  0
149220  1  0  0  0  0
156221  1  0  0  0  0
157222  1  0  0  0  0
M  END
