
  xtb     03042212503D
 energy: -396.580538998248 gnorm: 0.000487963834 xtb: 6.4.1 (unknown)
222245  0     0  0            999 V2000
    7.4337    1.0991    9.8335 C   0  0  0  0  0  0  0  0  0  0  0  0
    8.3567    1.1533    8.8525 C   0  0  0  0  0  0  0  0  0  0  0  0
    7.8457    1.7039    7.6390 C   0  0  0  0  0  0  0  0  0  0  0  0
    8.5160    1.8921    6.4217 C   0  0  0  0  0  0  0  0  0  0  0  0
    9.9321    1.5362    6.2599 C   0  0  0  0  0  0  0  0  0  0  0  0
   10.9034    2.0284    7.1301 C   0  0  0  0  0  0  0  0  0  0  0  0
   12.2297    1.6968    6.9598 C   0  0  0  0  0  0  0  0  0  0  0  0
   12.6422    0.8501    5.9303 C   0  0  0  0  0  0  0  0  0  0  0  0
   14.3621    0.4634    5.8587 S   0  0  0  0  0  0  0  0  0  0  0  0
   14.6874    0.1498    4.0772 C   0  0  0  0  0  0  0  0  0  0  0  0
   16.1665    0.3492    3.8114 C   0  0  0  0  0  0  0  0  0  0  0  0
   11.6579    0.3495    5.0836 C   0  0  0  0  0  0  0  0  0  0  0  0
   11.9672   -0.5153    4.0904 F   0  0  0  0  0  0  0  0  0  0  0  0
   10.3295    0.6953    5.2270 C   0  0  0  0  0  0  0  0  0  0  0  0
    7.7756    2.4267    5.3784 C   0  0  0  0  0  0  0  0  0  0  0  0
    6.4151    2.8037    5.5068 C   0  0  0  0  0  0  0  0  0  0  0  0
    5.7340    2.5855    6.7155 C   0  0  0  0  0  0  0  0  0  0  0  0
    4.3006    2.8757    6.8533 C   0  0  0  0  0  0  0  0  0  0  0  0
    3.7564    4.1095    6.4978 C   0  0  0  0  0  0  0  0  0  0  0  0
    2.4008    4.3327    6.5990 C   0  0  0  0  0  0  0  0  0  0  0  0
    1.5245    3.3495    7.0645 C   0  0  0  0  0  0  0  0  0  0  0  0
   -0.1765    3.8179    7.1615 S   0  0  0  0  0  0  0  0  0  0  0  0
   -1.1576    2.2753    7.0856 C   0  0  0  0  0  0  0  0  0  0  0  0
   -0.9821    1.5405    5.7724 C   0  0  0  0  0  0  0  0  0  0  0  0
    2.0882    2.1376    7.4502 C   0  0  0  0  0  0  0  0  0  0  0  0
    3.4424    1.8944    7.3377 C   0  0  0  0  0  0  0  0  0  0  0  0
    1.3292    1.1335    7.9466 F   0  0  0  0  0  0  0  0  0  0  0  0
    6.4744    2.0357    7.7536 C   0  0  0  0  0  0  0  0  0  0  0  0
    5.8802    1.6953    9.3593 S   0  0  0  0  0  0  0  0  0  0  0  0
    5.9023    3.3347    4.2961 C   0  0  0  0  0  0  0  0  0  0  0  0
    6.8178    3.3689    3.2859 C   0  0  0  0  0  0  0  0  0  0  0  0
    8.3775    2.7465    3.7693 S   0  0  0  0  0  0  0  0  0  0  0  0
    6.5533    3.8218    1.9591 C   0  0  0  0  0  0  0  0  0  0  0  0
    7.4394    3.2801    0.5340 S   0  0  0  0  0  0  0  0  0  0  0  0
    6.3524    4.1014   -0.5768 C   0  0  0  0  0  0  0  0  0  0  0  0
    5.4247    4.7876    0.1569 C   0  0  0  0  0  0  0  0  0  0  0  0
    5.5270    4.6247    1.5487 C   0  0  0  0  0  0  0  0  0  0  0  0
    4.5132    5.3022    2.1609 O   0  0  0  0  0  0  0  0  0  0  0  0
    3.7882    5.9219    1.1103 C   0  0  0  0  0  0  0  0  0  0  0  0
    4.3503    5.5679   -0.1408 O   0  0  0  0  0  0  0  0  0  0  0  0
    6.3127    3.8660   -1.9769 C   0  0  0  0  0  0  0  0  0  0  0  0
    4.9610    4.5116   -2.8962 S   0  0  0  0  0  0  0  0  0  0  0  0
    5.2992    3.5017   -4.3030 C   0  0  0  0  0  0  0  0  0  0  0  0
    6.4469    2.8030   -4.0587 C   0  0  0  0  0  0  0  0  0  0  0  0
    7.0143    3.0155   -2.7838 C   0  0  0  0  0  0  0  0  0  0  0  0
    8.1097    2.2188   -2.6327 O   0  0  0  0  0  0  0  0  0  0  0  0
    8.2414    1.5250   -3.8596 C   0  0  0  0  0  0  0  0  0  0  0  0
    7.1747    1.8654   -4.7287 O   0  0  0  0  0  0  0  0  0  0  0  0
    4.2502    3.3053   -5.2507 C   0  0  0  0  0  0  0  0  0  0  0  0
    3.9512    2.1615   -5.9329 C   0  0  0  0  0  0  0  0  0  0  0  0
    2.6043    2.1156   -6.3798 C   0  0  0  0  0  0  0  0  0  0  0  0
    1.9166    0.9894   -6.8715 C   0  0  0  0  0  0  0  0  0  0  0  0
    2.6462   -0.2181   -7.2755 C   0  0  0  0  0  0  0  0  0  0  0  0
    2.2898   -1.4818   -6.8156 C   0  0  0  0  0  0  0  0  0  0  0  0
    2.9704   -2.6133   -7.2223 C   0  0  0  0  0  0  0  0  0  0  0  0
    4.0388   -2.5238   -8.1060 C   0  0  0  0  0  0  0  0  0  0  0  0
    4.9743   -3.8745   -8.7399 S   0  0  0  0  0  0  0  0  0  0  0  0
    4.2656   -5.3476   -7.9249 C   0  0  0  0  0  0  0  0  0  0  0  0
    4.7548   -5.5174   -6.4982 C   0  0  0  0  0  0  0  0  0  0  0  0
    4.3972   -1.2474   -8.5473 C   0  0  0  0  0  0  0  0  0  0  0  0
    5.4327   -1.1217   -9.4016 F   0  0  0  0  0  0  0  0  0  0  0  0
    3.7291   -0.1128   -8.1487 C   0  0  0  0  0  0  0  0  0  0  0  0
    0.5313    1.0654   -6.8565 C   0  0  0  0  0  0  0  0  0  0  0  0
   -0.1720    2.2446   -6.5084 C   0  0  0  0  0  0  0  0  0  0  0  0
    0.5215    3.4185   -6.1693 C   0  0  0  0  0  0  0  0  0  0  0  0
   -0.2169    4.6504   -5.8697 C   0  0  0  0  0  0  0  0  0  0  0  0
   -1.1754    5.1167   -6.7663 C   0  0  0  0  0  0  0  0  0  0  0  0
   -1.8908    6.2713   -6.5164 C   0  0  0  0  0  0  0  0  0  0  0  0
   -1.6778    7.0010   -5.3522 C   0  0  0  0  0  0  0  0  0  0  0  0
   -2.5342    8.4683   -4.8898 S   0  0  0  0  0  0  0  0  0  0  0  0
   -3.3537    9.0135   -6.4278 C   0  0  0  0  0  0  0  0  0  0  0  0
   -2.3651    9.5368   -7.4523 C   0  0  0  0  0  0  0  0  0  0  0  0
   -0.7267    6.5115   -4.4543 C   0  0  0  0  0  0  0  0  0  0  0  0
   -0.0015    5.3667   -4.6944 C   0  0  0  0  0  0  0  0  0  0  0  0
   -0.5138    7.1784   -3.3026 F   0  0  0  0  0  0  0  0  0  0  0  0
    1.8959    3.2980   -6.0446 C   0  0  0  0  0  0  0  0  0  0  0  0
    2.9482    4.4728   -5.2977 S   0  0  0  0  0  0  0  0  0  0  0  0
   -1.5536    2.0044   -6.3024 C   0  0  0  0  0  0  0  0  0  0  0  0
   -1.9112    0.6990   -6.4609 C   0  0  0  0  0  0  0  0  0  0  0  0
   -0.5760   -0.2727   -7.0687 S   0  0  0  0  0  0  0  0  0  0  0  0
   -3.0270    0.0449   -5.8583 C   0  0  0  0  0  0  0  0  0  0  0  0
   -3.2537   -1.2974   -5.7829 C   0  0  0  0  0  0  0  0  0  0  0  0
   -4.1091   -1.6721   -4.7145 C   0  0  0  0  0  0  0  0  0  0  0  0
   -4.3623   -2.9643   -4.2242 C   0  0  0  0  0  0  0  0  0  0  0  0
   -3.7932   -4.1550   -4.8687 C   0  0  0  0  0  0  0  0  0  0  0  0
   -2.4339   -4.2243   -5.1598 C   0  0  0  0  0  0  0  0  0  0  0  0
   -1.8864   -5.3364   -5.7691 C   0  0  0  0  0  0  0  0  0  0  0  0
   -2.6805   -6.4258   -6.1067 C   0  0  0  0  0  0  0  0  0  0  0  0
   -2.1320   -7.8925   -6.9118 S   0  0  0  0  0  0  0  0  0  0  0  0
   -0.3734   -7.5769   -7.2934 C   0  0  0  0  0  0  0  0  0  0  0  0
    0.5432   -7.8496   -6.1143 C   0  0  0  0  0  0  0  0  0  0  0  0
   -4.0379   -6.3532   -5.7841 C   0  0  0  0  0  0  0  0  0  0  0  0
   -4.8349   -7.3959   -6.0885 F   0  0  0  0  0  0  0  0  0  0  0  0
   -4.5960   -5.2509   -5.1772 C   0  0  0  0  0  0  0  0  0  0  0  0
   -5.0771   -3.0530   -3.0380 C   0  0  0  0  0  0  0  0  0  0  0  0
   -5.5187   -1.9170   -2.3159 C   0  0  0  0  0  0  0  0  0  0  0  0
   -5.2841   -0.6263   -2.8154 C   0  0  0  0  0  0  0  0  0  0  0  0
   -5.6010    0.5741   -2.0315 C   0  0  0  0  0  0  0  0  0  0  0  0
   -5.1422    0.6972   -0.7201 C   0  0  0  0  0  0  0  0  0  0  0  0
   -5.4044    1.8330    0.0115 C   0  0  0  0  0  0  0  0  0  0  0  0
   -6.1289    2.8964   -0.5288 C   0  0  0  0  0  0  0  0  0  0  0  0
   -6.3593    4.3024    0.5114 S   0  0  0  0  0  0  0  0  0  0  0  0
   -7.9218    5.0687   -0.0736 C   0  0  0  0  0  0  0  0  0  0  0  0
   -8.4870    5.9262    1.0414 C   0  0  0  0  0  0  0  0  0  0  0  0
   -6.5522    2.7724   -1.8487 C   0  0  0  0  0  0  0  0  0  0  0  0
   -6.3036    1.6340   -2.5906 C   0  0  0  0  0  0  0  0  0  0  0  0
   -7.2224    3.7737   -2.4617 F   0  0  0  0  0  0  0  0  0  0  0  0
   -4.5956   -0.5399   -4.0134 C   0  0  0  0  0  0  0  0  0  0  0  0
   -4.0079    0.9469   -4.7111 S   0  0  0  0  0  0  0  0  0  0  0  0
   -6.0731   -2.2689   -1.0607 C   0  0  0  0  0  0  0  0  0  0  0  0
   -6.0212   -3.6053   -0.7964 C   0  0  0  0  0  0  0  0  0  0  0  0
   -5.3697   -4.5215   -2.1408 S   0  0  0  0  0  0  0  0  0  0  0  0
   -6.2940   -4.2278    0.4629 C   0  0  0  0  0  0  0  0  0  0  0  0
   -6.2672   -3.6026    1.6752 C   0  0  0  0  0  0  0  0  0  0  0  0
   -6.4184   -4.4839    2.7752 C   0  0  0  0  0  0  0  0  0  0  0  0
   -6.3863   -4.1710    4.1448 C   0  0  0  0  0  0  0  0  0  0  0  0
   -6.0454   -2.8230    4.6156 C   0  0  0  0  0  0  0  0  0  0  0  0
   -4.9396   -2.1547    4.0883 C   0  0  0  0  0  0  0  0  0  0  0  0
   -4.5789   -0.9043    4.5461 C   0  0  0  0  0  0  0  0  0  0  0  0
   -5.3103   -0.2713    5.5440 C   0  0  0  0  0  0  0  0  0  0  0  0
   -4.8544    1.3074    6.2079 S   0  0  0  0  0  0  0  0  0  0  0  0
   -4.6003    2.2886    4.6827 C   0  0  0  0  0  0  0  0  0  0  0  0
   -5.8947    2.4677    3.9153 C   0  0  0  0  0  0  0  0  0  0  0  0
   -6.4043   -0.9515    6.0732 C   0  0  0  0  0  0  0  0  0  0  0  0
   -7.1373   -0.3769    7.0431 F   0  0  0  0  0  0  0  0  0  0  0  0
   -6.7773   -2.2020    5.6238 C   0  0  0  0  0  0  0  0  0  0  0  0
   -6.6183   -5.2214    5.0238 C   0  0  0  0  0  0  0  0  0  0  0  0
   -6.8416   -6.5536    4.5965 C   0  0  0  0  0  0  0  0  0  0  0  0
   -6.8364   -6.8693    3.2300 C   0  0  0  0  0  0  0  0  0  0  0  0
   -7.0389   -8.2439    2.7535 C   0  0  0  0  0  0  0  0  0  0  0  0
   -6.1290   -8.8389    1.8820 C   0  0  0  0  0  0  0  0  0  0  0  0
   -6.3282  -10.1260    1.4318 C   0  0  0  0  0  0  0  0  0  0  0  0
   -7.4355  -10.8723    1.8308 C   0  0  0  0  0  0  0  0  0  0  0  0
   -7.5460  -12.5324    1.2312 S   0  0  0  0  0  0  0  0  0  0  0  0
   -9.3280  -12.7714    0.8851 C   0  0  0  0  0  0  0  0  0  0  0  0
   -9.8548  -11.7550   -0.1074 C   0  0  0  0  0  0  0  0  0  0  0  0
   -8.3266  -10.2706    2.7143 C   0  0  0  0  0  0  0  0  0  0  0  0
   -8.1467   -8.9778    3.1636 C   0  0  0  0  0  0  0  0  0  0  0  0
   -9.4093  -10.9386    3.1720 F   0  0  0  0  0  0  0  0  0  0  0  0
   -6.6138   -5.8208    2.3500 C   0  0  0  0  0  0  0  0  0  0  0  0
   -6.5526   -5.9511    0.6105 S   0  0  0  0  0  0  0  0  0  0  0  0
   -6.9720   -7.4452    5.7033 C   0  0  0  0  0  0  0  0  0  0  0  0
   -6.8615   -6.8238    6.8942 C   0  0  0  0  0  0  0  0  0  0  0  0
   -6.5912   -5.1201    6.7658 S   0  0  0  0  0  0  0  0  0  0  0  0
    7.5559    0.7323   10.8339 H   0  0  0  0  0  0  0  0  0  0  0  0
    9.3684    0.8080    8.9640 H   0  0  0  0  0  0  0  0  0  0  0  0
   10.6165    2.6988    7.9259 H   0  0  0  0  0  0  0  0  0  0  0  0
   12.9813    2.0898    7.6267 H   0  0  0  0  0  0  0  0  0  0  0  0
   14.3798   -0.8685    3.8444 H   0  0  0  0  0  0  0  0  0  0  0  0
   14.0853    0.8575    3.5096 H   0  0  0  0  0  0  0  0  0  0  0  0
   16.7578   -0.3393    4.4109 H   0  0  0  0  0  0  0  0  0  0  0  0
   16.3777    0.1664    2.7600 H   0  0  0  0  0  0  0  0  0  0  0  0
   16.4661    1.3654    4.0580 H   0  0  0  0  0  0  0  0  0  0  0  0
    9.6096    0.2735    4.5432 H   0  0  0  0  0  0  0  0  0  0  0  0
    4.4037    4.9008    6.1525 H   0  0  0  0  0  0  0  0  0  0  0  0
    1.9850    5.2880    6.3173 H   0  0  0  0  0  0  0  0  0  0  0  0
   -0.9079    1.6505    7.9393 H   0  0  0  0  0  0  0  0  0  0  0  0
   -2.1831    2.6290    7.1982 H   0  0  0  0  0  0  0  0  0  0  0  0
    0.0354    1.1715    5.6634 H   0  0  0  0  0  0  0  0  0  0  0  0
   -1.6598    0.6895    5.7467 H   0  0  0  0  0  0  0  0  0  0  0  0
   -1.2034    2.1990    4.9344 H   0  0  0  0  0  0  0  0  0  0  0  0
    3.8122    0.9228    7.6261 H   0  0  0  0  0  0  0  0  0  0  0  0
    4.8867    3.6581    4.1628 H   0  0  0  0  0  0  0  0  0  0  0  0
    3.8294    7.0152    1.2328 H   0  0  0  0  0  0  0  0  0  0  0  0
    2.7404    5.5899    1.1467 H   0  0  0  0  0  0  0  0  0  0  0  0
    8.2220    0.4417   -3.6691 H   0  0  0  0  0  0  0  0  0  0  0  0
    9.1987    1.7951   -4.3324 H   0  0  0  0  0  0  0  0  0  0  0  0
    4.6335    1.3338   -6.0032 H   0  0  0  0  0  0  0  0  0  0  0  0
    1.4816   -1.5868   -6.1093 H   0  0  0  0  0  0  0  0  0  0  0  0
    2.6540   -3.5699   -6.8401 H   0  0  0  0  0  0  0  0  0  0  0  0
    4.6081   -6.1736   -8.5484 H   0  0  0  0  0  0  0  0  0  0  0  0
    3.1800   -5.2892   -7.9938 H   0  0  0  0  0  0  0  0  0  0  0  0
    4.3336   -6.4231   -6.0651 H   0  0  0  0  0  0  0  0  0  0  0  0
    4.4692   -4.6699   -5.8792 H   0  0  0  0  0  0  0  0  0  0  0  0
    5.8388   -5.5990   -6.4835 H   0  0  0  0  0  0  0  0  0  0  0  0
    4.0405    0.8452   -8.5346 H   0  0  0  0  0  0  0  0  0  0  0  0
   -1.3531    4.5732   -7.6824 H   0  0  0  0  0  0  0  0  0  0  0  0
   -2.6250    6.5930   -7.2369 H   0  0  0  0  0  0  0  0  0  0  0  0
   -4.0198    9.8081   -6.0916 H   0  0  0  0  0  0  0  0  0  0  0  0
   -3.9604    8.1942   -6.8114 H   0  0  0  0  0  0  0  0  0  0  0  0
   -1.6626    8.7616   -7.7509 H   0  0  0  0  0  0  0  0  0  0  0  0
   -1.8003   10.3678   -7.0364 H   0  0  0  0  0  0  0  0  0  0  0  0
   -2.8966    9.8846   -8.3361 H   0  0  0  0  0  0  0  0  0  0  0  0
    0.7066    5.0338   -3.9531 H   0  0  0  0  0  0  0  0  0  0  0  0
   -2.2303    2.7519   -5.9271 H   0  0  0  0  0  0  0  0  0  0  0  0
   -2.7664   -1.9994   -6.4349 H   0  0  0  0  0  0  0  0  0  0  0  0
   -1.7864   -3.4062   -4.8827 H   0  0  0  0  0  0  0  0  0  0  0  0
   -0.8294   -5.3416   -5.9782 H   0  0  0  0  0  0  0  0  0  0  0  0
   -0.1599   -8.2674   -8.1095 H   0  0  0  0  0  0  0  0  0  0  0  0
   -0.2844   -6.5584   -7.6689 H   0  0  0  0  0  0  0  0  0  0  0  0
    1.5786   -7.6754   -6.4032 H   0  0  0  0  0  0  0  0  0  0  0  0
    0.4427   -8.8841   -5.7952 H   0  0  0  0  0  0  0  0  0  0  0  0
    0.3035   -7.2095   -5.2683 H   0  0  0  0  0  0  0  0  0  0  0  0
   -5.6540   -5.2453   -4.9679 H   0  0  0  0  0  0  0  0  0  0  0  0
   -4.5565   -0.0977   -0.2839 H   0  0  0  0  0  0  0  0  0  0  0  0
   -5.0444    1.9245    1.0242 H   0  0  0  0  0  0  0  0  0  0  0  0
   -8.6018    4.2583   -0.3314 H   0  0  0  0  0  0  0  0  0  0  0  0
   -7.7020    5.6650   -0.9578 H   0  0  0  0  0  0  0  0  0  0  0  0
   -8.6889    5.3230    1.9238 H   0  0  0  0  0  0  0  0  0  0  0  0
   -7.7845    6.7109    1.3131 H   0  0  0  0  0  0  0  0  0  0  0  0
   -9.4153    6.3881    0.7124 H   0  0  0  0  0  0  0  0  0  0  0  0
   -6.6656    1.5889   -3.6060 H   0  0  0  0  0  0  0  0  0  0  0  0
   -6.4876   -1.5509   -0.3775 H   0  0  0  0  0  0  0  0  0  0  0  0
   -6.1304   -2.5426    1.7837 H   0  0  0  0  0  0  0  0  0  0  0  0
   -4.3328   -2.6395    3.3386 H   0  0  0  0  0  0  0  0  0  0  0  0
   -3.7068   -0.4189    4.1346 H   0  0  0  0  0  0  0  0  0  0  0  0
   -3.8290    1.8130    4.0789 H   0  0  0  0  0  0  0  0  0  0  0  0
   -4.2249    3.2440    5.0474 H   0  0  0  0  0  0  0  0  0  0  0  0
   -6.2515    1.5122    3.5329 H   0  0  0  0  0  0  0  0  0  0  0  0
   -6.6606    2.8854    4.5646 H   0  0  0  0  0  0  0  0  0  0  0  0
   -5.7435    3.1475    3.0787 H   0  0  0  0  0  0  0  0  0  0  0  0
   -7.6480   -2.6713    6.0533 H   0  0  0  0  0  0  0  0  0  0  0  0
   -5.2547   -8.2920    1.5649 H   0  0  0  0  0  0  0  0  0  0  0  0
   -5.6217  -10.5836    0.7571 H   0  0  0  0  0  0  0  0  0  0  0  0
   -9.8786  -12.7513    1.8230 H   0  0  0  0  0  0  0  0  0  0  0  0
   -9.3660  -13.7798    0.4729 H   0  0  0  0  0  0  0  0  0  0  0  0
   -9.2695  -11.7772   -1.0244 H   0  0  0  0  0  0  0  0  0  0  0  0
  -10.8915  -11.9818   -0.3478 H   0  0  0  0  0  0  0  0  0  0  0  0
   -9.8103  -10.7490    0.3058 H   0  0  0  0  0  0  0  0  0  0  0  0
   -8.8821   -8.5511    3.8284 H   0  0  0  0  0  0  0  0  0  0  0  0
   -7.1213   -8.5039    5.5950 H   0  0  0  0  0  0  0  0  0  0  0  0
   -6.9211   -7.2588    7.8727 H   0  0  0  0  0  0  0  0  0  0  0  0
  1  2  2  0  0  0  0
  2  3  1  0  0  0  0
  3  4  2  0  0  0  0
  4  5  1  0  0  0  0
  5  6  2  0  0  0  0
  6  7  1  0  0  0  0
  7  8  2  0  0  0  0
  8  9  1  0  0  0  0
  9 10  1  0  0  0  0
 10 11  1  0  0  0  0
  8 12  1  0  0  0  0
 12 13  1  0  0  0  0
 12 14  2  0  0  0  0
  4 15  1  0  0  0  0
 15 16  2  0  0  0  0
 16 17  1  0  0  0  0
 17 18  1  0  0  0  0
 18 19  2  0  0  0  0
 19 20  1  0  0  0  0
 20 21  2  0  0  0  0
 21 22  1  0  0  0  0
 22 23  1  0  0  0  0
 23 24  1  0  0  0  0
 21 25  1  0  0  0  0
 25 26  2  0  0  0  0
 25 27  1  0  0  0  0
 17 28  2  0  0  0  0
 28 29  1  0  0  0  0
 16 30  1  0  0  0  0
 30 31  2  0  0  0  0
 31 32  1  0  0  0  0
 31 33  1  0  0  0  0
 33 34  1  0  0  0  0
 34 35  1  0  0  0  0
 35 36  2  0  0  0  0
 36 37  1  0  0  0  0
 37 38  1  0  0  0  0
 38 39  1  0  0  0  0
 39 40  1  0  0  0  0
 35 41  1  0  0  0  0
 41 42  1  0  0  0  0
 42 43  1  0  0  0  0
 43 44  2  0  0  0  0
 44 45  1  0  0  0  0
 45 46  1  0  0  0  0
 46 47  1  0  0  0  0
 47 48  1  0  0  0  0
 43 49  1  0  0  0  0
 49 50  2  0  0  0  0
 50 51  1  0  0  0  0
 51 52  2  0  0  0  0
 52 53  1  0  0  0  0
 53 54  2  0  0  0  0
 54 55  1  0  0  0  0
 55 56  2  0  0  0  0
 56 57  1  0  0  0  0
 57 58  1  0  0  0  0
 58 59  1  0  0  0  0
 56 60  1  0  0  0  0
 60 61  1  0  0  0  0
 60 62  2  0  0  0  0
 52 63  1  0  0  0  0
 63 64  2  0  0  0  0
 64 65  1  0  0  0  0
 65 66  1  0  0  0  0
 66 67  2  0  0  0  0
 67 68  1  0  0  0  0
 68 69  2  0  0  0  0
 69 70  1  0  0  0  0
 70 71  1  0  0  0  0
 71 72  1  0  0  0  0
 69 73  1  0  0  0  0
 73 74  2  0  0  0  0
 73 75  1  0  0  0  0
 65 76  2  0  0  0  0
 76 77  1  0  0  0  0
 64 78  1  0  0  0  0
 78 79  2  0  0  0  0
 79 80  1  0  0  0  0
 79 81  1  0  0  0  0
 81 82  2  0  0  0  0
 82 83  1  0  0  0  0
 83 84  2  0  0  0  0
 84 85  1  0  0  0  0
 85 86  2  0  0  0  0
 86 87  1  0  0  0  0
 87 88  2  0  0  0  0
 88 89  1  0  0  0  0
 89 90  1  0  0  0  0
 90 91  1  0  0  0  0
 88 92  1  0  0  0  0
 92 93  1  0  0  0  0
 92 94  2  0  0  0  0
 84 95  1  0  0  0  0
 95 96  2  0  0  0  0
 96 97  1  0  0  0  0
 97 98  1  0  0  0  0
 98 99  2  0  0  0  0
 99100  1  0  0  0  0
100101  2  0  0  0  0
101102  1  0  0  0  0
102103  1  0  0  0  0
103104  1  0  0  0  0
101105  1  0  0  0  0
105106  2  0  0  0  0
105107  1  0  0  0  0
 97108  2  0  0  0  0
108109  1  0  0  0  0
 96110  1  0  0  0  0
110111  2  0  0  0  0
111112  1  0  0  0  0
111113  1  0  0  0  0
113114  2  0  0  0  0
114115  1  0  0  0  0
115116  2  0  0  0  0
116117  1  0  0  0  0
117118  2  0  0  0  0
118119  1  0  0  0  0
119120  2  0  0  0  0
120121  1  0  0  0  0
121122  1  0  0  0  0
122123  1  0  0  0  0
120124  1  0  0  0  0
124125  1  0  0  0  0
124126  2  0  0  0  0
116127  1  0  0  0  0
127128  2  0  0  0  0
128129  1  0  0  0  0
129130  1  0  0  0  0
130131  2  0  0  0  0
131132  1  0  0  0  0
132133  2  0  0  0  0
133134  1  0  0  0  0
134135  1  0  0  0  0
135136  1  0  0  0  0
133137  1  0  0  0  0
137138  2  0  0  0  0
137139  1  0  0  0  0
129140  2  0  0  0  0
140141  1  0  0  0  0
128142  1  0  0  0  0
142143  2  0  0  0  0
143144  1  0  0  0  0
 29  1  1  0  0  0  0
 37 33  2  0  0  0  0
 45 41  2  0  0  0  0
 77 49  1  0  0  0  0
109 81  1  0  0  0  0
141113  1  0  0  0  0
 28  3  1  0  0  0  0
 40 36  1  0  0  0  0
 48 44  1  0  0  0  0
 76 51  1  0  0  0  0
108 83  1  0  0  0  0
140115  1  0  0  0  0
 14  5  1  0  0  0  0
 32 15  1  0  0  0  0
 62 53  1  0  0  0  0
 80 63  1  0  0  0  0
 94 85  1  0  0  0  0
112 95  1  0  0  0  0
126117  1  0  0  0  0
144127  1  0  0  0  0
 26 18  1  0  0  0  0
 74 66  1  0  0  0  0
106 98  1  0  0  0  0
138130  1  0  0  0  0
  1145  1  0  0  0  0
  2146  1  0  0  0  0
  6147  1  0  0  0  0
  7148  1  0  0  0  0
 10149  1  0  0  0  0
 10150  1  0  0  0  0
 11151  1  0  0  0  0
 11152  1  0  0  0  0
 11153  1  0  0  0  0
 14154  1  0  0  0  0
 19155  1  0  0  0  0
 20156  1  0  0  0  0
 23157  1  0  0  0  0
 23158  1  0  0  0  0
 24159  1  0  0  0  0
 24160  1  0  0  0  0
 24161  1  0  0  0  0
 26162  1  0  0  0  0
 30163  1  0  0  0  0
 39164  1  0  0  0  0
 39165  1  0  0  0  0
 47166  1  0  0  0  0
 47167  1  0  0  0  0
 50168  1  0  0  0  0
 54169  1  0  0  0  0
 55170  1  0  0  0  0
 58171  1  0  0  0  0
 58172  1  0  0  0  0
 59173  1  0  0  0  0
 59174  1  0  0  0  0
 59175  1  0  0  0  0
 62176  1  0  0  0  0
 67177  1  0  0  0  0
 68178  1  0  0  0  0
 71179  1  0  0  0  0
 71180  1  0  0  0  0
 72181  1  0  0  0  0
 72182  1  0  0  0  0
 72183  1  0  0  0  0
 74184  1  0  0  0  0
 78185  1  0  0  0  0
 82186  1  0  0  0  0
 86187  1  0  0  0  0
 87188  1  0  0  0  0
 90189  1  0  0  0  0
 90190  1  0  0  0  0
 91191  1  0  0  0  0
 91192  1  0  0  0  0
 91193  1  0  0  0  0
 94194  1  0  0  0  0
 99195  1  0  0  0  0
100196  1  0  0  0  0
103197  1  0  0  0  0
103198  1  0  0  0  0
104199  1  0  0  0  0
104200  1  0  0  0  0
104201  1  0  0  0  0
106202  1  0  0  0  0
110203  1  0  0  0  0
114204  1  0  0  0  0
118205  1  0  0  0  0
119206  1  0  0  0  0
122207  1  0  0  0  0
122208  1  0  0  0  0
123209  1  0  0  0  0
123210  1  0  0  0  0
123211  1  0  0  0  0
126212  1  0  0  0  0
131213  1  0  0  0  0
132214  1  0  0  0  0
135215  1  0  0  0  0
135216  1  0  0  0  0
136217  1  0  0  0  0
136218  1  0  0  0  0
136219  1  0  0  0  0
138220  1  0  0  0  0
142221  1  0  0  0  0
143222  1  0  0  0  0
M  END
