
  xtb     03012222253D
 energy: -446.553304424890 gnorm: 0.000495551294 xtb: 6.4.1 (unknown)
222248  0     0  0            999 V2000
    1.7022   -1.9183   10.9250 C   0  0  0  0  0  0  0  0  0  0  0  0
    1.5725   -1.1936    9.7953 C   0  0  0  0  0  0  0  0  0  0  0  0
    0.8639   -1.8868    8.7705 C   0  0  0  0  0  0  0  0  0  0  0  0
    0.5710   -1.4561    7.4659 C   0  0  0  0  0  0  0  0  0  0  0  0
    1.0691   -0.1820    6.9710 C   0  0  0  0  0  0  0  0  0  0  0  0
    0.0061    0.9896    6.2465 S   0  0  0  0  0  0  0  0  0  0  0  0
    1.2882    2.1337    6.0234 C   0  0  0  0  0  0  0  0  0  0  0  0
    1.0259    3.4771    5.4361 C   0  0  0  0  0  0  0  0  0  0  0  0
    0.2308    3.3944    4.1352 C   0  0  0  0  0  0  0  0  0  0  0  0
    2.4645    1.6204    6.4819 C   0  0  0  0  0  0  0  0  0  0  0  0
    3.9538    2.4750    6.4776 Cl  0  0  0  0  0  0  0  0  0  0  0  0
    2.3465    0.3056    7.0097 C   0  0  0  0  0  0  0  0  0  0  0  0
    3.7046   -0.5898    7.5554 Cl  0  0  0  0  0  0  0  0  0  0  0  0
   -0.2098   -2.3017    6.6863 C   0  0  0  0  0  0  0  0  0  0  0  0
   -0.6540   -3.5709    7.1309 C   0  0  0  0  0  0  0  0  0  0  0  0
   -0.3308   -4.0154    8.4232 C   0  0  0  0  0  0  0  0  0  0  0  0
   -0.7702   -5.3154    8.9049 C   0  0  0  0  0  0  0  0  0  0  0  0
   -0.3905   -6.7746    8.0367 S   0  0  0  0  0  0  0  0  0  0  0  0
   -1.2025   -7.7705    9.1955 C   0  0  0  0  0  0  0  0  0  0  0  0
   -1.2139   -9.2540    9.0686 C   0  0  0  0  0  0  0  0  0  0  0  0
    0.0131   -9.8684    9.7467 C   0  0  0  0  0  0  0  0  0  0  0  0
   -1.7261   -7.0037   10.1929 C   0  0  0  0  0  0  0  0  0  0  0  0
   -1.4875   -5.6122   10.0299 C   0  0  0  0  0  0  0  0  0  0  0  0
   -2.1257   -4.4402   11.1047 Cl  0  0  0  0  0  0  0  0  0  0  0  0
   -2.6073   -7.6365   11.5219 Cl  0  0  0  0  0  0  0  0  0  0  0  0
    0.4215   -3.1565    9.2152 C   0  0  0  0  0  0  0  0  0  0  0  0
    0.9638   -3.4784   10.8371 S   0  0  0  0  0  0  0  0  0  0  0  0
   -1.4292   -4.2384    6.1490 C   0  0  0  0  0  0  0  0  0  0  0  0
   -1.5723   -3.5270    4.9953 C   0  0  0  0  0  0  0  0  0  0  0  0
   -0.7512   -1.9830    5.0651 S   0  0  0  0  0  0  0  0  0  0  0  0
   -2.2751   -3.9044    3.8090 C   0  0  0  0  0  0  0  0  0  0  0  0
   -2.7328   -5.1407    3.4560 C   0  0  0  0  0  0  0  0  0  0  0  0
   -3.3520   -5.1715    2.1801 C   0  0  0  0  0  0  0  0  0  0  0  0
   -3.9027   -6.2791    1.5046 C   0  0  0  0  0  0  0  0  0  0  0  0
   -3.9626   -7.5839    2.1431 C   0  0  0  0  0  0  0  0  0  0  0  0
   -4.7259   -7.7842    3.6943 S   0  0  0  0  0  0  0  0  0  0  0  0
   -4.3999   -9.4834    3.7257 C   0  0  0  0  0  0  0  0  0  0  0  0
   -4.8695  -10.3418    4.8479 C   0  0  0  0  0  0  0  0  0  0  0  0
   -6.2987  -10.8307    4.6005 C   0  0  0  0  0  0  0  0  0  0  0  0
   -3.7439   -9.8585    2.5918 C   0  0  0  0  0  0  0  0  0  0  0  0
   -3.2471  -11.4674    2.2645 Cl  0  0  0  0  0  0  0  0  0  0  0  0
   -3.4896   -8.7856    1.6949 C   0  0  0  0  0  0  0  0  0  0  0  0
   -2.5938   -8.9937    0.2495 Cl  0  0  0  0  0  0  0  0  0  0  0  0
   -4.3667   -6.0644    0.2118 C   0  0  0  0  0  0  0  0  0  0  0  0
   -4.3230   -4.7884   -0.4013 C   0  0  0  0  0  0  0  0  0  0  0  0
   -3.8600   -3.6646    0.2994 C   0  0  0  0  0  0  0  0  0  0  0  0
   -3.9498   -2.3297   -0.2663 C   0  0  0  0  0  0  0  0  0  0  0  0
   -2.5906   -1.2494   -0.2854 S   0  0  0  0  0  0  0  0  0  0  0  0
   -3.5107    0.0249   -1.0008 C   0  0  0  0  0  0  0  0  0  0  0  0
   -2.9119    1.3645   -1.2438 C   0  0  0  0  0  0  0  0  0  0  0  0
   -2.9610    2.2176    0.0253 C   0  0  0  0  0  0  0  0  0  0  0  0
   -4.7979   -0.3746   -1.2020 C   0  0  0  0  0  0  0  0  0  0  0  0
   -5.0516   -1.7113   -0.7944 C   0  0  0  0  0  0  0  0  0  0  0  0
   -6.6090   -2.4248   -0.8745 Cl  0  0  0  0  0  0  0  0  0  0  0  0
   -6.0041    0.6423   -1.8679 Cl  0  0  0  0  0  0  0  0  0  0  0  0
   -3.3411   -3.8965    1.5646 C   0  0  0  0  0  0  0  0  0  0  0  0
   -2.6094   -2.6993    2.5859 S   0  0  0  0  0  0  0  0  0  0  0  0
   -4.7414   -4.8378   -1.7492 C   0  0  0  0  0  0  0  0  0  0  0  0
   -5.1495   -6.0724   -2.1562 C   0  0  0  0  0  0  0  0  0  0  0  0
   -5.0549   -7.2534   -0.8717 S   0  0  0  0  0  0  0  0  0  0  0  0
   -5.5075   -6.3217   -3.5247 C   0  0  0  0  0  0  0  0  0  0  0  0
   -4.5645   -5.4141   -4.6969 S   0  0  0  0  0  0  0  0  0  0  0  0
   -5.6483   -5.7834   -6.0469 C   0  0  0  0  0  0  0  0  0  0  0  0
   -6.6095   -6.6177   -5.5811 C   0  0  0  0  0  0  0  0  0  0  0  0
   -6.5081   -6.9502   -4.1973 C   0  0  0  0  0  0  0  0  0  0  0  0
   -7.5464   -7.7598   -3.8544 O   0  0  0  0  0  0  0  0  0  0  0  0
   -8.2865   -7.9588   -5.0438 C   0  0  0  0  0  0  0  0  0  0  0  0
   -7.7095   -7.2227   -6.1056 O   0  0  0  0  0  0  0  0  0  0  0  0
   -5.4462   -4.8091   -7.0996 C   0  0  0  0  0  0  0  0  0  0  0  0
   -4.2608   -4.5409   -7.7078 C   0  0  0  0  0  0  0  0  0  0  0  0
   -4.0390   -3.1538   -7.9399 C   0  0  0  0  0  0  0  0  0  0  0  0
   -2.8212   -2.5438   -8.2948 C   0  0  0  0  0  0  0  0  0  0  0  0
   -1.7975   -3.3052   -8.9752 C   0  0  0  0  0  0  0  0  0  0  0  0
   -0.1063   -3.1729   -8.5898 S   0  0  0  0  0  0  0  0  0  0  0  0
    0.3405   -4.3345   -9.7904 C   0  0  0  0  0  0  0  0  0  0  0  0
    1.7569   -4.7570   -9.9656 C   0  0  0  0  0  0  0  0  0  0  0  0
    2.1115   -5.8940   -9.0039 C   0  0  0  0  0  0  0  0  0  0  0  0
   -0.7652   -4.7923  -10.4446 C   0  0  0  0  0  0  0  0  0  0  0  0
   -0.7161   -5.9493  -11.7113 Cl  0  0  0  0  0  0  0  0  0  0  0  0
   -1.9770   -4.2123   -9.9895 C   0  0  0  0  0  0  0  0  0  0  0  0
   -3.4884   -4.5685  -10.7184 Cl  0  0  0  0  0  0  0  0  0  0  0  0
   -2.6427   -1.2335   -7.8535 C   0  0  0  0  0  0  0  0  0  0  0  0
   -3.6644   -0.4993   -7.2088 C   0  0  0  0  0  0  0  0  0  0  0  0
   -4.9537   -1.0393   -7.0806 C   0  0  0  0  0  0  0  0  0  0  0  0
   -6.0336   -0.2980   -6.4419 C   0  0  0  0  0  0  0  0  0  0  0  0
   -6.7029    1.1280   -7.1738 S   0  0  0  0  0  0  0  0  0  0  0  0
   -7.8799    1.3106   -5.9173 C   0  0  0  0  0  0  0  0  0  0  0  0
   -8.9046    2.3895   -5.9687 C   0  0  0  0  0  0  0  0  0  0  0  0
  -10.1279    1.9415   -6.7719 C   0  0  0  0  0  0  0  0  0  0  0  0
   -7.7456    0.3195   -4.9917 C   0  0  0  0  0  0  0  0  0  0  0  0
   -6.6868   -0.5853   -5.2767 C   0  0  0  0  0  0  0  0  0  0  0  0
   -6.2371   -1.8470   -4.2118 Cl  0  0  0  0  0  0  0  0  0  0  0  0
   -8.7628    0.1529   -3.6209 Cl  0  0  0  0  0  0  0  0  0  0  0  0
   -5.1025   -2.3720   -7.4295 C   0  0  0  0  0  0  0  0  0  0  0  0
   -6.4673   -3.3706   -6.9975 S   0  0  0  0  0  0  0  0  0  0  0  0
   -3.1579    0.6500   -6.5419 C   0  0  0  0  0  0  0  0  0  0  0  0
   -1.8196    0.8104   -6.6864 C   0  0  0  0  0  0  0  0  0  0  0  0
   -1.1207   -0.3886   -7.7675 S   0  0  0  0  0  0  0  0  0  0  0  0
   -0.9244    1.5651   -5.8358 C   0  0  0  0  0  0  0  0  0  0  0  0
   -0.0018    2.5251   -6.0800 C   0  0  0  0  0  0  0  0  0  0  0  0
    0.7881    2.8540   -4.9394 C   0  0  0  0  0  0  0  0  0  0  0  0
    1.8004    3.8215   -4.8281 C   0  0  0  0  0  0  0  0  0  0  0  0
    2.1225    4.7133   -5.9301 C   0  0  0  0  0  0  0  0  0  0  0  0
    0.8905    5.6756   -6.6933 S   0  0  0  0  0  0  0  0  0  0  0  0
    2.0251    6.4227   -7.7649 C   0  0  0  0  0  0  0  0  0  0  0  0
    1.6004    7.4781   -8.7250 C   0  0  0  0  0  0  0  0  0  0  0  0
    1.5797    8.8520   -8.0504 C   0  0  0  0  0  0  0  0  0  0  0  0
    3.2802    5.9463   -7.5307 C   0  0  0  0  0  0  0  0  0  0  0  0
    4.6713    6.4493   -8.3997 Cl  0  0  0  0  0  0  0  0  0  0  0  0
    3.3398    4.9754   -6.4946 C   0  0  0  0  0  0  0  0  0  0  0  0
    4.7918    4.1673   -6.0774 Cl  0  0  0  0  0  0  0  0  0  0  0  0
    2.4612    3.9103   -3.6068 C   0  0  0  0  0  0  0  0  0  0  0  0
    2.1801    3.0469   -2.5199 C   0  0  0  0  0  0  0  0  0  0  0  0
    1.1628    2.0850   -2.6241 C   0  0  0  0  0  0  0  0  0  0  0  0
    0.8745    1.1767   -1.5252 C   0  0  0  0  0  0  0  0  0  0  0  0
    0.5502    1.7617    0.0829 S   0  0  0  0  0  0  0  0  0  0  0  0
    0.3603    0.1638    0.7138 C   0  0  0  0  0  0  0  0  0  0  0  0
    0.1156   -0.0762    2.1596 C   0  0  0  0  0  0  0  0  0  0  0  0
    1.4469   -0.1731    2.9038 C   0  0  0  0  0  0  0  0  0  0  0  0
    0.5667   -0.7597   -0.2669 C   0  0  0  0  0  0  0  0  0  0  0  0
    0.8434   -0.1914   -1.5391 C   0  0  0  0  0  0  0  0  0  0  0  0
    1.1787   -1.1538   -2.9161 Cl  0  0  0  0  0  0  0  0  0  0  0  0
    0.4904   -2.4518   -0.0053 Cl  0  0  0  0  0  0  0  0  0  0  0  0
    0.4717    2.0357   -3.8276 C   0  0  0  0  0  0  0  0  0  0  0  0
   -0.8700    0.9908   -4.1759 S   0  0  0  0  0  0  0  0  0  0  0  0
    3.0136    3.3066   -1.4069 C   0  0  0  0  0  0  0  0  0  0  0  0
    3.8603    4.3582   -1.5950 C   0  0  0  0  0  0  0  0  0  0  0  0
    3.6887    5.0705   -3.1822 S   0  0  0  0  0  0  0  0  0  0  0  0
    4.7622    4.8741   -0.6116 C   0  0  0  0  0  0  0  0  0  0  0  0
    5.2152    4.2051    0.4875 C   0  0  0  0  0  0  0  0  0  0  0  0
    5.9802    5.0096    1.3668 C   0  0  0  0  0  0  0  0  0  0  0  0
    6.5828    4.6429    2.5835 C   0  0  0  0  0  0  0  0  0  0  0  0
    6.4532    3.3035    3.1321 C   0  0  0  0  0  0  0  0  0  0  0  0
    7.8658    2.4452    3.6793 S   0  0  0  0  0  0  0  0  0  0  0  0
    6.9471    1.0522    4.1251 C   0  0  0  0  0  0  0  0  0  0  0  0
    7.5861   -0.1231    4.7773 C   0  0  0  0  0  0  0  0  0  0  0  0
    7.5628    0.0321    6.3003 C   0  0  0  0  0  0  0  0  0  0  0  0
    5.6239    1.2520    3.8665 C   0  0  0  0  0  0  0  0  0  0  0  0
    4.4209    0.0685    4.1723 Cl  0  0  0  0  0  0  0  0  0  0  0  0
    5.3399    2.5254    3.3052 C   0  0  0  0  0  0  0  0  0  0  0  0
    3.7366    3.0410    2.9834 Cl  0  0  0  0  0  0  0  0  0  0  0  0
    7.3378    5.6193    3.2263 C   0  0  0  0  0  0  0  0  0  0  0  0
    7.4988    6.9304    2.7208 C   0  0  0  0  0  0  0  0  0  0  0  0
    6.8762    7.3021    1.5196 C   0  0  0  0  0  0  0  0  0  0  0  0
    7.0136    8.6419    0.9693 C   0  0  0  0  0  0  0  0  0  0  0  0
    8.5766    9.3246    0.6316 S   0  0  0  0  0  0  0  0  0  0  0  0
    7.8916   10.7898    0.0158 C   0  0  0  0  0  0  0  0  0  0  0  0
    8.7508   11.8726   -0.5370 C   0  0  0  0  0  0  0  0  0  0  0  0
    9.0470   11.6309   -2.0192 C   0  0  0  0  0  0  0  0  0  0  0  0
    6.5311   10.7346    0.0705 C   0  0  0  0  0  0  0  0  0  0  0  0
    6.0294    9.5206    0.6123 C   0  0  0  0  0  0  0  0  0  0  0  0
    4.3563    9.2450    0.8590 Cl  0  0  0  0  0  0  0  0  0  0  0  0
    5.5017   12.0058   -0.4481 Cl  0  0  0  0  0  0  0  0  0  0  0  0
    6.1270    6.3293    0.8705 C   0  0  0  0  0  0  0  0  0  0  0  0
    5.3112    6.5320   -0.6529 S   0  0  0  0  0  0  0  0  0  0  0  0
    8.2861    7.7388    3.5921 C   0  0  0  0  0  0  0  0  0  0  0  0
    8.6946    7.0761    4.6927 C   0  0  0  0  0  0  0  0  0  0  0  0
    8.1567    5.4337    4.7529 S   0  0  0  0  0  0  0  0  0  0  0  0
    2.1886   -1.6332   11.8373 H   0  0  0  0  0  0  0  0  0  0  0  0
    1.9474   -0.1929    9.6870 H   0  0  0  0  0  0  0  0  0  0  0  0
    1.9844    3.9681    5.2596 H   0  0  0  0  0  0  0  0  0  0  0  0
    0.4674    4.0790    6.1594 H   0  0  0  0  0  0  0  0  0  0  0  0
    0.7881    2.8449    3.3816 H   0  0  0  0  0  0  0  0  0  0  0  0
   -0.7185    2.8916    4.3051 H   0  0  0  0  0  0  0  0  0  0  0  0
    0.0334    4.3931    3.7552 H   0  0  0  0  0  0  0  0  0  0  0  0
   -2.1209   -9.6391    9.5386 H   0  0  0  0  0  0  0  0  0  0  0  0
   -1.2215   -9.5274    8.0122 H   0  0  0  0  0  0  0  0  0  0  0  0
    0.0254   -9.6147   10.8035 H   0  0  0  0  0  0  0  0  0  0  0  0
   -0.0083  -10.9503    9.6479 H   0  0  0  0  0  0  0  0  0  0  0  0
    0.9250   -9.4934    9.2882 H   0  0  0  0  0  0  0  0  0  0  0  0
   -1.8789   -5.2012    6.3034 H   0  0  0  0  0  0  0  0  0  0  0  0
   -2.6027   -6.0104    4.0727 H   0  0  0  0  0  0  0  0  0  0  0  0
   -4.2006  -11.2002    4.9352 H   0  0  0  0  0  0  0  0  0  0  0  0
   -4.8356   -9.7727    5.7785 H   0  0  0  0  0  0  0  0  0  0  0  0
   -6.6258  -11.4600    5.4236 H   0  0  0  0  0  0  0  0  0  0  0  0
   -6.3448  -11.4075    3.6804 H   0  0  0  0  0  0  0  0  0  0  0  0
   -6.9771   -9.9852    4.5154 H   0  0  0  0  0  0  0  0  0  0  0  0
   -1.8762    1.2434   -1.5637 H   0  0  0  0  0  0  0  0  0  0  0  0
   -3.4656    1.8599   -2.0431 H   0  0  0  0  0  0  0  0  0  0  0  0
   -2.4465    1.7113    0.8384 H   0  0  0  0  0  0  0  0  0  0  0  0
   -3.9921    2.3920    0.3218 H   0  0  0  0  0  0  0  0  0  0  0  0
   -2.4784    3.1751   -0.1496 H   0  0  0  0  0  0  0  0  0  0  0  0
   -4.7224   -3.9867   -2.4048 H   0  0  0  0  0  0  0  0  0  0  0  0
   -8.2874   -9.0303   -5.2987 H   0  0  0  0  0  0  0  0  0  0  0  0
   -9.3219   -7.6204   -4.8883 H   0  0  0  0  0  0  0  0  0  0  0  0
   -3.4984   -5.2862   -7.8472 H   0  0  0  0  0  0  0  0  0  0  0  0
    2.4132   -3.9055   -9.7788 H   0  0  0  0  0  0  0  0  0  0  0  0
    1.8988   -5.0917  -10.9949 H   0  0  0  0  0  0  0  0  0  0  0  0
    1.4754   -6.7559   -9.1884 H   0  0  0  0  0  0  0  0  0  0  0  0
    3.1479   -6.1898   -9.1423 H   0  0  0  0  0  0  0  0  0  0  0  0
    1.9737   -5.5731   -7.9742 H   0  0  0  0  0  0  0  0  0  0  0  0
   -9.2071    2.6340   -4.9486 H   0  0  0  0  0  0  0  0  0  0  0  0
   -8.4720    3.2792   -6.4294 H   0  0  0  0  0  0  0  0  0  0  0  0
   -9.8410    1.6980   -7.7922 H   0  0  0  0  0  0  0  0  0  0  0  0
  -10.5745    1.0610   -6.3170 H   0  0  0  0  0  0  0  0  0  0  0  0
  -10.8695    2.7353   -6.7971 H   0  0  0  0  0  0  0  0  0  0  0  0
   -3.7645    1.2810   -5.9171 H   0  0  0  0  0  0  0  0  0  0  0  0
    0.1221    2.9875   -7.0421 H   0  0  0  0  0  0  0  0  0  0  0  0
    0.6041    7.2444   -9.1040 H   0  0  0  0  0  0  0  0  0  0  0  0
    2.3006    7.4923   -9.5622 H   0  0  0  0  0  0  0  0  0  0  0  0
    0.8837    8.8514   -7.2149 H   0  0  0  0  0  0  0  0  0  0  0  0
    2.5694    9.1036   -7.6780 H   0  0  0  0  0  0  0  0  0  0  0  0
    1.2709    9.6127   -8.7623 H   0  0  0  0  0  0  0  0  0  0  0  0
   -0.4387   -1.0080    2.2738 H   0  0  0  0  0  0  0  0  0  0  0  0
   -0.4798    0.7359    2.5775 H   0  0  0  0  0  0  0  0  0  0  0  0
    2.0440   -0.9861    2.4991 H   0  0  0  0  0  0  0  0  0  0  0  0
    2.0045    0.7538    2.7996 H   0  0  0  0  0  0  0  0  0  0  0  0
    1.2747   -0.3617    3.9590 H   0  0  0  0  0  0  0  0  0  0  0  0
    2.9665    2.7540   -0.4880 H   0  0  0  0  0  0  0  0  0  0  0  0
    5.0281    3.1607    0.6473 H   0  0  0  0  0  0  0  0  0  0  0  0
    8.6176   -0.2130    4.4337 H   0  0  0  0  0  0  0  0  0  0  0  0
    7.0407   -1.0258    4.4947 H   0  0  0  0  0  0  0  0  0  0  0  0
    8.1012    0.9295    6.5962 H   0  0  0  0  0  0  0  0  0  0  0  0
    8.0302   -0.8286    6.7710 H   0  0  0  0  0  0  0  0  0  0  0  0
    6.5385    0.1095    6.6549 H   0  0  0  0  0  0  0  0  0  0  0  0
    9.6885   11.9118    0.0199 H   0  0  0  0  0  0  0  0  0  0  0  0
    8.2321   12.8260   -0.4193 H   0  0  0  0  0  0  0  0  0  0  0  0
    8.1213   11.6001   -2.5879 H   0  0  0  0  0  0  0  0  0  0  0  0
    9.5676   10.6853   -2.1508 H   0  0  0  0  0  0  0  0  0  0  0  0
    9.6704   12.4305   -2.4101 H   0  0  0  0  0  0  0  0  0  0  0  0
    8.5224    8.7677    3.3928 H   0  0  0  0  0  0  0  0  0  0  0  0
    9.2931    7.4477    5.5012 H   0  0  0  0  0  0  0  0  0  0  0  0
  1  2  2  0  0  0  0
  2  3  1  0  0  0  0
  3  4  2  0  0  0  0
  4  5  1  0  0  0  0
  5  6  1  0  0  0  0
  6  7  1  0  0  0  0
  7  8  1  0  0  0  0
  8  9  1  0  0  0  0
  7 10  2  0  0  0  0
 10 11  1  0  0  0  0
 10 12  1  0  0  0  0
 12 13  1  0  0  0  0
  4 14  1  0  0  0  0
 14 15  2  0  0  0  0
 15 16  1  0  0  0  0
 16 17  1  0  0  0  0
 17 18  1  0  0  0  0
 18 19  1  0  0  0  0
 19 20  1  0  0  0  0
 20 21  1  0  0  0  0
 19 22  2  0  0  0  0
 22 23  1  0  0  0  0
 23 24  1  0  0  0  0
 22 25  1  0  0  0  0
 16 26  2  0  0  0  0
 26 27  1  0  0  0  0
 15 28  1  0  0  0  0
 28 29  2  0  0  0  0
 29 30  1  0  0  0  0
 29 31  1  0  0  0  0
 31 32  2  0  0  0  0
 32 33  1  0  0  0  0
 33 34  2  0  0  0  0
 34 35  1  0  0  0  0
 35 36  1  0  0  0  0
 36 37  1  0  0  0  0
 37 38  1  0  0  0  0
 38 39  1  0  0  0  0
 37 40  2  0  0  0  0
 40 41  1  0  0  0  0
 40 42  1  0  0  0  0
 42 43  1  0  0  0  0
 34 44  1  0  0  0  0
 44 45  2  0  0  0  0
 45 46  1  0  0  0  0
 46 47  1  0  0  0  0
 47 48  1  0  0  0  0
 48 49  1  0  0  0  0
 49 50  1  0  0  0  0
 50 51  1  0  0  0  0
 49 52  2  0  0  0  0
 52 53  1  0  0  0  0
 53 54  1  0  0  0  0
 52 55  1  0  0  0  0
 46 56  2  0  0  0  0
 56 57  1  0  0  0  0
 45 58  1  0  0  0  0
 58 59  2  0  0  0  0
 59 60  1  0  0  0  0
 59 61  1  0  0  0  0
 61 62  1  0  0  0  0
 62 63  1  0  0  0  0
 63 64  2  0  0  0  0
 64 65  1  0  0  0  0
 65 66  1  0  0  0  0
 66 67  1  0  0  0  0
 67 68  1  0  0  0  0
 63 69  1  0  0  0  0
 69 70  2  0  0  0  0
 70 71  1  0  0  0  0
 71 72  2  0  0  0  0
 72 73  1  0  0  0  0
 73 74  1  0  0  0  0
 74 75  1  0  0  0  0
 75 76  1  0  0  0  0
 76 77  1  0  0  0  0
 75 78  2  0  0  0  0
 78 79  1  0  0  0  0
 78 80  1  0  0  0  0
 80 81  1  0  0  0  0
 72 82  1  0  0  0  0
 82 83  2  0  0  0  0
 83 84  1  0  0  0  0
 84 85  1  0  0  0  0
 85 86  1  0  0  0  0
 86 87  1  0  0  0  0
 87 88  1  0  0  0  0
 88 89  1  0  0  0  0
 87 90  2  0  0  0  0
 90 91  1  0  0  0  0
 91 92  1  0  0  0  0
 90 93  1  0  0  0  0
 84 94  2  0  0  0  0
 94 95  1  0  0  0  0
 83 96  1  0  0  0  0
 96 97  2  0  0  0  0
 97 98  1  0  0  0  0
 97 99  1  0  0  0  0
 99100  2  0  0  0  0
100101  1  0  0  0  0
101102  2  0  0  0  0
102103  1  0  0  0  0
103104  1  0  0  0  0
104105  1  0  0  0  0
105106  1  0  0  0  0
106107  1  0  0  0  0
105108  2  0  0  0  0
108109  1  0  0  0  0
108110  1  0  0  0  0
110111  1  0  0  0  0
102112  1  0  0  0  0
112113  2  0  0  0  0
113114  1  0  0  0  0
114115  1  0  0  0  0
115116  1  0  0  0  0
116117  1  0  0  0  0
117118  1  0  0  0  0
118119  1  0  0  0  0
117120  2  0  0  0  0
120121  1  0  0  0  0
121122  1  0  0  0  0
120123  1  0  0  0  0
114124  2  0  0  0  0
124125  1  0  0  0  0
113126  1  0  0  0  0
126127  2  0  0  0  0
127128  1  0  0  0  0
127129  1  0  0  0  0
129130  2  0  0  0  0
130131  1  0  0  0  0
131132  2  0  0  0  0
132133  1  0  0  0  0
133134  1  0  0  0  0
134135  1  0  0  0  0
135136  1  0  0  0  0
136137  1  0  0  0  0
135138  2  0  0  0  0
138139  1  0  0  0  0
138140  1  0  0  0  0
140141  1  0  0  0  0
132142  1  0  0  0  0
142143  2  0  0  0  0
143144  1  0  0  0  0
144145  1  0  0  0  0
145146  1  0  0  0  0
146147  1  0  0  0  0
147148  1  0  0  0  0
148149  1  0  0  0  0
147150  2  0  0  0  0
150151  1  0  0  0  0
151152  1  0  0  0  0
150153  1  0  0  0  0
144154  2  0  0  0  0
154155  1  0  0  0  0
143156  1  0  0  0  0
156157  2  0  0  0  0
157158  1  0  0  0  0
 27  1  1  0  0  0  0
 57 31  1  0  0  0  0
 65 61  2  0  0  0  0
 95 69  1  0  0  0  0
125 99  1  0  0  0  0
155129  1  0  0  0  0
 26  3  1  0  0  0  0
 56 33  1  0  0  0  0
 68 64  1  0  0  0  0
 94 71  1  0  0  0  0
124101  1  0  0  0  0
154131  1  0  0  0  0
 12  5  2  0  0  0  0
 30 14  1  0  0  0  0
 42 35  2  0  0  0  0
 60 44  1  0  0  0  0
 80 73  2  0  0  0  0
 98 82  1  0  0  0  0
110103  2  0  0  0  0
128112  1  0  0  0  0
140133  2  0  0  0  0
158142  1  0  0  0  0
 23 17  2  0  0  0  0
 53 47  2  0  0  0  0
 91 85  2  0  0  0  0
121115  2  0  0  0  0
151145  2  0  0  0  0
  1159  1  0  0  0  0
  2160  1  0  0  0  0
  8161  1  0  0  0  0
  8162  1  0  0  0  0
  9163  1  0  0  0  0
  9164  1  0  0  0  0
  9165  1  0  0  0  0
 20166  1  0  0  0  0
 20167  1  0  0  0  0
 21168  1  0  0  0  0
 21169  1  0  0  0  0
 21170  1  0  0  0  0
 28171  1  0  0  0  0
 32172  1  0  0  0  0
 38173  1  0  0  0  0
 38174  1  0  0  0  0
 39175  1  0  0  0  0
 39176  1  0  0  0  0
 39177  1  0  0  0  0
 50178  1  0  0  0  0
 50179  1  0  0  0  0
 51180  1  0  0  0  0
 51181  1  0  0  0  0
 51182  1  0  0  0  0
 58183  1  0  0  0  0
 67184  1  0  0  0  0
 67185  1  0  0  0  0
 70186  1  0  0  0  0
 76187  1  0  0  0  0
 76188  1  0  0  0  0
 77189  1  0  0  0  0
 77190  1  0  0  0  0
 77191  1  0  0  0  0
 88192  1  0  0  0  0
 88193  1  0  0  0  0
 89194  1  0  0  0  0
 89195  1  0  0  0  0
 89196  1  0  0  0  0
 96197  1  0  0  0  0
100198  1  0  0  0  0
106199  1  0  0  0  0
106200  1  0  0  0  0
107201  1  0  0  0  0
107202  1  0  0  0  0
107203  1  0  0  0  0
118204  1  0  0  0  0
118205  1  0  0  0  0
119206  1  0  0  0  0
119207  1  0  0  0  0
119208  1  0  0  0  0
126209  1  0  0  0  0
130210  1  0  0  0  0
136211  1  0  0  0  0
136212  1  0  0  0  0
137213  1  0  0  0  0
137214  1  0  0  0  0
137215  1  0  0  0  0
148216  1  0  0  0  0
148217  1  0  0  0  0
149218  1  0  0  0  0
149219  1  0  0  0  0
149220  1  0  0  0  0
156221  1  0  0  0  0
157222  1  0  0  0  0
M  END
