
  xtb     02282216063D
 energy: -155.151285284290 gnorm: 0.000525867819 xtb: 6.4.1 (unknown)
 95103  0     0  0            999 V2000
   -0.0877    1.6514    6.6573 C   0  0  0  0  0  0  0  0  0  0  0  0
   -0.9095    0.2175    7.0629 S   0  0  0  0  0  0  0  0  0  0  0  0
   -2.4608    0.9252    6.7447 C   0  0  0  0  0  0  0  0  0  0  0  0
   -2.3247    2.2506    6.3430 C   0  0  0  0  0  0  0  0  0  0  0  0
   -0.9462    2.6592    6.2796 C   0  0  0  0  0  0  0  0  0  0  0  0
   -0.5940    3.9745    5.8623 C   0  0  0  0  0  0  0  0  0  0  0  0
    0.8450    4.3785    5.8047 C   0  0  0  0  0  0  0  0  0  0  0  0
   -1.6074    4.8170    5.5147 C   0  0  0  0  0  0  0  0  0  0  0  0
   -2.9585    4.4103    5.5480 C   0  0  0  0  0  0  0  0  0  0  0  0
   -3.3442    3.1611    5.9452 C   0  0  0  0  0  0  0  0  0  0  0  0
   -4.7890    2.7707    5.9528 C   0  0  0  0  0  0  0  0  0  0  0  0
   -3.6513    0.1664    7.0346 C   0  0  0  0  0  0  0  0  0  0  0  0
   -3.9447   -1.0736    6.5924 C   0  0  0  0  0  0  0  0  0  0  0  0
   -3.2888   -1.8129    5.5650 C   0  0  0  0  0  0  0  0  0  0  0  0
   -3.6179   -3.1140    5.1884 C   0  0  0  0  0  0  0  0  0  0  0  0
   -4.5664   -3.8835    5.8825 C   0  0  0  0  0  0  0  0  0  0  0  0
   -5.3425   -4.5045    6.4555 N   0  0  0  0  0  0  0  0  0  0  0  0
   -2.9169   -3.5779    4.0602 C   0  0  0  0  0  0  0  0  0  0  0  0
   -2.0525   -2.6392    3.5504 C   0  0  0  0  0  0  0  0  0  0  0  0
   -2.0943   -1.1659    4.4887 S   0  0  0  0  0  0  0  0  0  0  0  0
   -1.1860   -2.7397    2.4279 C   0  0  0  0  0  0  0  0  0  0  0  0
   -1.1014   -3.7527    1.4802 C   0  0  0  0  0  0  0  0  0  0  0  0
   -1.9027   -4.9039    1.4485 C   0  0  0  0  0  0  0  0  0  0  0  0
   -2.5331   -5.8609    1.3813 N   0  0  0  0  0  0  0  0  0  0  0  0
   -0.1251   -3.5076    0.4902 C   0  0  0  0  0  0  0  0  0  0  0  0
    0.5575   -2.3352    0.6742 C   0  0  0  0  0  0  0  0  0  0  0  0
   -0.0350   -1.4854    2.0817 S   0  0  0  0  0  0  0  0  0  0  0  0
    1.5407   -1.7474   -0.1832 C   0  0  0  0  0  0  0  0  0  0  0  0
    1.3412   -0.0798   -0.6113 S   0  0  0  0  0  0  0  0  0  0  0  0
    2.5788   -0.1559   -1.8127 C   0  0  0  0  0  0  0  0  0  0  0  0
    3.1800   -1.4081   -1.8313 C   0  0  0  0  0  0  0  0  0  0  0  0
    2.6085   -2.3191   -0.8719 C   0  0  0  0  0  0  0  0  0  0  0  0
    3.2187   -3.5886   -0.6603 C   0  0  0  0  0  0  0  0  0  0  0  0
    2.8239   -4.4983    0.4618 C   0  0  0  0  0  0  0  0  0  0  0  0
    4.2513   -3.9381   -1.4847 C   0  0  0  0  0  0  0  0  0  0  0  0
    4.7094   -3.1033   -2.5219 C   0  0  0  0  0  0  0  0  0  0  0  0
    4.2141   -1.8454   -2.7082 C   0  0  0  0  0  0  0  0  0  0  0  0
    4.7400   -0.9628   -3.7945 C   0  0  0  0  0  0  0  0  0  0  0  0
    2.8582    1.0339   -2.5962 C   0  0  0  0  0  0  0  0  0  0  0  0
    2.0197    1.5798   -3.4996 C   0  0  0  0  0  0  0  0  0  0  0  0
    0.8113    0.9989   -3.9876 C   0  0  0  0  0  0  0  0  0  0  0  0
    0.4501   -0.6416   -3.5830 S   0  0  0  0  0  0  0  0  0  0  0  0
   -0.9040   -0.7224   -4.6432 C   0  0  0  0  0  0  0  0  0  0  0  0
   -1.0854    0.4973   -5.3069 C   0  0  0  0  0  0  0  0  0  0  0  0
   -0.1258    1.4950   -4.9095 C   0  0  0  0  0  0  0  0  0  0  0  0
   -0.2374    2.8155   -5.4263 C   0  0  0  0  0  0  0  0  0  0  0  0
    0.6231    3.9555   -4.9720 C   0  0  0  0  0  0  0  0  0  0  0  0
   -1.2031    3.0520   -6.3680 C   0  0  0  0  0  0  0  0  0  0  0  0
   -2.0566    2.0446   -6.8407 C   0  0  0  0  0  0  0  0  0  0  0  0
   -2.0308    0.7758   -6.3295 C   0  0  0  0  0  0  0  0  0  0  0  0
   -2.9570   -0.2663   -6.8739 C   0  0  0  0  0  0  0  0  0  0  0  0
   -1.7264   -1.8895   -4.5954 C   0  0  0  0  0  0  0  0  0  0  0  0
   -1.3303   -3.1399   -4.2692 C   0  0  0  0  0  0  0  0  0  0  0  0
    0.0160   -3.6296   -4.1810 C   0  0  0  0  0  0  0  0  0  0  0  0
    1.1205   -3.3363   -4.9654 C   0  0  0  0  0  0  0  0  0  0  0  0
    1.1161   -2.4132   -6.0212 C   0  0  0  0  0  0  0  0  0  0  0  0
    1.1405   -1.6712   -6.8973 N   0  0  0  0  0  0  0  0  0  0  0  0
    2.2647   -4.1087   -4.6334 C   0  0  0  0  0  0  0  0  0  0  0  0
    2.0296   -4.9773   -3.6231 C   0  0  0  0  0  0  0  0  0  0  0  0
    0.4111   -4.8831   -3.0451 S   0  0  0  0  0  0  0  0  0  0  0  0
    0.9809    1.6803    6.7262 H   0  0  0  0  0  0  0  0  0  0  0  0
    1.3894    3.7431    5.1066 H   0  0  0  0  0  0  0  0  0  0  0  0
    1.3102    4.2750    6.7844 H   0  0  0  0  0  0  0  0  0  0  0  0
    0.9394    5.4118    5.4812 H   0  0  0  0  0  0  0  0  0  0  0  0
   -1.3821    5.8229    5.1907 H   0  0  0  0  0  0  0  0  0  0  0  0
   -3.7115    5.1220    5.2409 H   0  0  0  0  0  0  0  0  0  0  0  0
   -4.9222    1.7772    5.5278 H   0  0  0  0  0  0  0  0  0  0  0  0
   -5.3750    3.4832    5.3770 H   0  0  0  0  0  0  0  0  0  0  0  0
   -5.1787    2.7587    6.9705 H   0  0  0  0  0  0  0  0  0  0  0  0
   -4.3517    0.6337    7.7153 H   0  0  0  0  0  0  0  0  0  0  0  0
   -4.8215   -1.5678    6.9929 H   0  0  0  0  0  0  0  0  0  0  0  0
   -3.0483   -4.5614    3.6472 H   0  0  0  0  0  0  0  0  0  0  0  0
    0.0285   -4.1575   -0.3515 H   0  0  0  0  0  0  0  0  0  0  0  0
    2.5409   -3.9289    1.3438 H   0  0  0  0  0  0  0  0  0  0  0  0
    3.6587   -5.1471    0.7184 H   0  0  0  0  0  0  0  0  0  0  0  0
    1.9832   -5.1330    0.1846 H   0  0  0  0  0  0  0  0  0  0  0  0
    4.7457   -4.8879   -1.3372 H   0  0  0  0  0  0  0  0  0  0  0  0
    5.5002   -3.4664   -3.1623 H   0  0  0  0  0  0  0  0  0  0  0  0
    5.2998   -0.1264   -3.3788 H   0  0  0  0  0  0  0  0  0  0  0  0
    3.9221   -0.5592   -4.3896 H   0  0  0  0  0  0  0  0  0  0  0  0
    5.4045   -1.5251   -4.4465 H   0  0  0  0  0  0  0  0  0  0  0  0
    3.8049    1.5230   -2.4051 H   0  0  0  0  0  0  0  0  0  0  0  0
    2.3354    2.4937   -3.9736 H   0  0  0  0  0  0  0  0  0  0  0  0
    1.6217    3.8887   -5.4046 H   0  0  0  0  0  0  0  0  0  0  0  0
    0.7075    3.9751   -3.8871 H   0  0  0  0  0  0  0  0  0  0  0  0
    0.1856    4.8962   -5.3000 H   0  0  0  0  0  0  0  0  0  0  0  0
   -1.3084    4.0465   -6.7773 H   0  0  0  0  0  0  0  0  0  0  0  0
   -2.7597    2.2890   -7.6236 H   0  0  0  0  0  0  0  0  0  0  0  0
   -3.3526    0.0578   -7.8338 H   0  0  0  0  0  0  0  0  0  0  0  0
   -3.8020   -0.4279   -6.2042 H   0  0  0  0  0  0  0  0  0  0  0  0
   -2.4345   -1.2110   -7.0112 H   0  0  0  0  0  0  0  0  0  0  0  0
   -2.7856   -1.7300   -4.7350 H   0  0  0  0  0  0  0  0  0  0  0  0
   -2.0938   -3.8795   -4.0648 H   0  0  0  0  0  0  0  0  0  0  0  0
    3.2052   -4.0103   -5.1442 H   0  0  0  0  0  0  0  0  0  0  0  0
    2.7071   -5.6742   -3.1735 H   0  0  0  0  0  0  0  0  0  0  0  0
  1  2  1  0  0  0  0
  2  3  1  0  0  0  0
  3  4  2  0  0  0  0
  4  5  1  0  0  0  0
  5  6  1  0  0  0  0
  6  7  1  0  0  0  0
  6  8  2  0  0  0  0
  8  9  1  0  0  0  0
  9 10  2  0  0  0  0
 10 11  1  0  0  0  0
  3 12  1  0  0  0  0
 12 13  2  0  0  0  0
 13 14  1  0  0  0  0
 14 15  2  0  0  0  0
 15 16  1  0  0  0  0
 16 17  3  0  0  0  0
 15 18  1  0  0  0  0
 18 19  2  0  0  0  0
 19 20  1  0  0  0  0
 19 21  1  0  0  0  0
 21 22  2  0  0  0  0
 22 23  1  0  0  0  0
 23 24  3  0  0  0  0
 22 25  1  0  0  0  0
 25 26  2  0  0  0  0
 26 27  1  0  0  0  0
 26 28  1  0  0  0  0
 28 29  1  0  0  0  0
 29 30  1  0  0  0  0
 30 31  2  0  0  0  0
 31 32  1  0  0  0  0
 32 33  1  0  0  0  0
 33 34  1  0  0  0  0
 33 35  2  0  0  0  0
 35 36  1  0  0  0  0
 36 37  2  0  0  0  0
 37 38  1  0  0  0  0
 30 39  1  0  0  0  0
 39 40  2  0  0  0  0
 40 41  1  0  0  0  0
 41 42  1  0  0  0  0
 42 43  1  0  0  0  0
 43 44  2  0  0  0  0
 44 45  1  0  0  0  0
 45 46  1  0  0  0  0
 46 47  1  0  0  0  0
 46 48  2  0  0  0  0
 48 49  1  0  0  0  0
 49 50  2  0  0  0  0
 50 51  1  0  0  0  0
 43 52  1  0  0  0  0
 52 53  2  0  0  0  0
 53 54  1  0  0  0  0
 54 55  2  0  0  0  0
 55 56  1  0  0  0  0
 56 57  3  0  0  0  0
 55 58  1  0  0  0  0
 58 59  2  0  0  0  0
 59 60  1  0  0  0  0
  5  1  2  0  0  0  0
 20 14  1  0  0  0  0
 27 21  1  0  0  0  0
 32 28  2  0  0  0  0
 45 41  2  0  0  0  0
 60 54  1  0  0  0  0
 10  4  1  0  0  0  0
 37 31  1  0  0  0  0
 50 44  1  0  0  0  0
  1 61  1  0  0  0  0
  7 62  1  0  0  0  0
  7 63  1  0  0  0  0
  7 64  1  0  0  0  0
  8 65  1  0  0  0  0
  9 66  1  0  0  0  0
 11 67  1  0  0  0  0
 11 68  1  0  0  0  0
 11 69  1  0  0  0  0
 12 70  1  0  0  0  0
 13 71  1  0  0  0  0
 18 72  1  0  0  0  0
 25 73  1  0  0  0  0
 34 74  1  0  0  0  0
 34 75  1  0  0  0  0
 34 76  1  0  0  0  0
 35 77  1  0  0  0  0
 36 78  1  0  0  0  0
 38 79  1  0  0  0  0
 38 80  1  0  0  0  0
 38 81  1  0  0  0  0
 39 82  1  0  0  0  0
 40 83  1  0  0  0  0
 47 84  1  0  0  0  0
 47 85  1  0  0  0  0
 47 86  1  0  0  0  0
 48 87  1  0  0  0  0
 49 88  1  0  0  0  0
 51 89  1  0  0  0  0
 51 90  1  0  0  0  0
 51 91  1  0  0  0  0
 52 92  1  0  0  0  0
 53 93  1  0  0  0  0
 58 94  1  0  0  0  0
 59 95  1  0  0  0  0
M  END
