95

C         -0.08770        1.65140        6.65730
S         -0.90950        0.21750        7.06290
C         -2.46080        0.92520        6.74470
C         -2.32470        2.25060        6.34300
C         -0.94620        2.65920        6.27960
C         -0.59400        3.97450        5.86230
C          0.84500        4.37850        5.80470
C         -1.60740        4.81700        5.51470
C         -2.95850        4.41030        5.54800
C         -3.34420        3.16110        5.94520
C         -4.78900        2.77070        5.95280
C         -3.65130        0.16640        7.03460
C         -3.94470       -1.07360        6.59240
C         -3.28880       -1.81290        5.56500
C         -3.61790       -3.11400        5.18840
C         -4.56640       -3.88350        5.88250
N         -5.34250       -4.50450        6.45550
C         -2.91690       -3.57790        4.06020
C         -2.05250       -2.63920        3.55040
S         -2.09430       -1.16590        4.48870
C         -1.18600       -2.73970        2.42790
C         -1.10140       -3.75270        1.48020
C         -1.90270       -4.90390        1.44850
N         -2.53310       -5.86090        1.38130
C         -0.12510       -3.50760        0.49020
C          0.55750       -2.33520        0.67420
S         -0.03500       -1.48540        2.08170
C          1.54070       -1.74740       -0.18320
S          1.34120       -0.07980       -0.61130
C          2.57880       -0.15590       -1.81270
C          3.18000       -1.40810       -1.83130
C          2.60850       -2.31910       -0.87190
C          3.21870       -3.58860       -0.66030
C          2.82390       -4.49830        0.46180
C          4.25130       -3.93810       -1.48470
C          4.70940       -3.10330       -2.52190
C          4.21410       -1.84540       -2.70820
C          4.74000       -0.96280       -3.79450
C          2.85820        1.03390       -2.59620
C          2.01970        1.57980       -3.49960
C          0.81130        0.99890       -3.98760
S          0.45010       -0.64160       -3.58300
C         -0.90400       -0.72240       -4.64320
C         -1.08540        0.49730       -5.30690
C         -0.12580        1.49500       -4.90950
C         -0.23740        2.81550       -5.42630
C          0.62310        3.95550       -4.97200
C         -1.20310        3.05200       -6.36800
C         -2.05660        2.04460       -6.84070
C         -2.03080        0.77580       -6.32950
C         -2.95700       -0.26630       -6.87390
C         -1.72640       -1.88950       -4.59540
C         -1.33030       -3.13990       -4.26920
C          0.01600       -3.62960       -4.18100
C          1.12050       -3.33630       -4.96540
C          1.11610       -2.41320       -6.02120
N          1.14050       -1.67120       -6.89730
C          2.26470       -4.10870       -4.63340
C          2.02960       -4.97730       -3.62310
S          0.41110       -4.88310       -3.04510
H          0.98090        1.68030        6.72620
H          1.38940        3.74310        5.10660
H          1.31020        4.27500        6.78440
H          0.93940        5.41180        5.48120
H         -1.38210        5.82290        5.19070
H         -3.71150        5.12200        5.24090
H         -4.92220        1.77720        5.52780
H         -5.37500        3.48320        5.37700
H         -5.17870        2.75870        6.97050
H         -4.35170        0.63370        7.71530
H         -4.82150       -1.56780        6.99290
H         -3.04830       -4.56140        3.64720
H          0.02850       -4.15750       -0.35150
H          2.54090       -3.92890        1.34380
H          3.65870       -5.14710        0.71840
H          1.98320       -5.13300        0.18460
H          4.74570       -4.88790       -1.33720
H          5.50020       -3.46640       -3.16230
H          5.29980       -0.12640       -3.37880
H          3.92210       -0.55920       -4.38960
H          5.40450       -1.52510       -4.44650
H          3.80490        1.52300       -2.40510
H          2.33540        2.49370       -3.97360
H          1.62170        3.88870       -5.40460
H          0.70750        3.97510       -3.88710
H          0.18560        4.89620       -5.30000
H         -1.30840        4.04650       -6.77730
H         -2.75970        2.28900       -7.62360
H         -3.35260        0.05780       -7.83380
H         -3.80200       -0.42790       -6.20420
H         -2.43450       -1.21100       -7.01120
H         -2.78560       -1.73000       -4.73500
H         -2.09380       -3.87950       -4.06480
H          3.20520       -4.01030       -5.14420
H          2.70710       -5.67420       -3.17350
