220

C        -11.04990      -14.31820       -8.04750
O        -10.43320      -13.14470       -8.19400
C        -11.21070      -12.35770       -8.96920
C        -12.36690      -13.03590       -9.32160
C        -12.24790      -14.32930       -8.71260
C        -13.17720      -15.38250       -8.78010
N        -13.93370      -16.24010       -8.82560
C        -13.49250      -12.55950      -10.01020
N        -14.45490      -12.19260      -10.51110
C        -10.76250      -11.03270       -9.27120
O         -9.86040      -10.45380       -8.44790
C         -9.58140       -9.22520       -8.91970
C        -10.30550       -8.99160      -10.08460
C        -11.07250      -10.17440      -10.31380
C        -11.86630      -10.42040      -11.44530
N        -12.45340      -10.60420      -12.41110
C        -10.28460       -7.84320      -10.88660
N        -10.26260       -6.90400      -11.54370
C         -8.66520       -8.39560       -8.21700
C         -8.27050       -7.12610       -8.53610
C         -7.35300       -6.57970       -7.60880
C         -6.76700       -5.29930       -7.63320
C         -7.12610       -4.31550       -8.65960
C         -6.14660       -3.64370       -9.39000
C         -6.49950       -2.71530      -10.34340
C         -7.83520       -2.40920      -10.61150
S         -8.11710       -1.23720      -11.89790
C         -9.69480       -0.40670      -11.48590
C         -9.62680        0.31770      -10.15650
C         -8.80140       -3.09620       -9.88080
F        -10.11890       -2.87760      -10.07710
C         -8.46180       -4.02500       -8.91800
C         -5.85720       -5.01680       -6.62680
C         -5.54800       -5.93320       -5.58940
C         -6.15210       -7.20120       -5.54780
C         -5.85290       -8.13860       -4.45810
C         -5.45650       -9.44580       -4.72080
C         -5.12880      -10.31470       -3.69720
C         -5.19620       -9.90940       -2.36940
S         -4.77450      -10.88840       -0.96790
C         -4.57870      -12.57640       -1.63070
C         -5.90680      -13.21010       -1.99860
C         -5.60930       -8.59860       -2.12050
C         -5.93400       -7.72220       -3.12940
F         -5.68780       -8.17110       -0.84290
C         -7.02970       -7.49950       -6.57690
S         -7.90740       -8.99500       -6.75450
C         -4.60730       -5.39860       -4.68030
C         -4.22800       -4.12010       -4.96770
S         -4.99900       -3.50900       -6.41580
C         -3.34050       -3.32840       -4.18170
C         -2.83100       -2.08620       -4.41640
C         -2.00070       -1.60880       -3.36770
C         -1.30110       -0.39160       -3.28700
C         -1.29560        0.56280       -4.40160
C         -1.58830        1.91090       -4.20000
C         -1.56380        2.79890       -5.25220
C         -1.25010        2.38660       -6.54790
S         -1.29020        3.61860       -7.80830
C         -0.05230        3.05110       -9.04260
C          0.40050        4.24520       -9.85940
C         -0.98080        1.03420       -6.73750
F         -0.70540        0.54260       -7.96750
C         -0.99070        0.13570       -5.68990
C         -0.60670       -0.14960       -2.11040
C         -0.55460       -1.06800       -1.03040
C         -1.22480       -2.29620       -1.12270
C         -1.17870       -3.32490       -0.07700
C         -2.35650       -3.91340        0.37800
C         -2.33120       -4.96980        1.26470
C         -1.12360       -5.48530        1.72270
S         -0.98220       -6.87640        2.79400
C         -2.52500       -7.80610        2.47610
C         -2.61890       -8.30290        1.04720
C          0.04620       -4.84720        1.30700
C          0.03500       -3.78840        0.42490
F          1.23510       -5.29340        1.75760
C         -1.93700       -2.52500       -2.28970
S         -2.82910       -3.97890       -2.63460
C          0.20290       -0.56800        0.05720
C          0.74500        0.66070       -0.17560
S          0.33960        1.27620       -1.76710
C          1.54400        1.44020        0.71140
C          2.16900        2.62360        0.45370
C          2.87990        3.14700        1.56360
C          3.63650        4.33100        1.62420
C          3.86660        5.15750        0.43450
C          3.68710        6.53690        0.46780
C          3.92730        7.31950       -0.64520
C          4.35830        6.74950       -1.83740
S          4.73030        7.61280       -3.32500
C          4.30310        9.35130       -2.96830
C          2.80770        9.60330       -3.01950
C          4.53570        5.36370       -1.85610
F          4.96030        4.77560       -2.99320
C          4.30040        4.57310       -0.75550
C          4.17370        4.66080        2.86050
C          4.02060        3.84150        4.00540
C          3.30880        2.63130        3.93480
C          3.19410        1.78040        5.12540
C          1.96200        1.31860        5.57600
C          1.85270        0.60610        6.75570
C          2.97330        0.33540        7.53250
S          2.97930       -0.51190        9.07610
C          1.22210       -0.56430        9.57040
C          0.69420        0.79950        9.97440
C          4.20980        0.76130        7.04290
C          4.33290        1.46450        5.86730
F          5.32450        0.49400        7.75340
C          2.73650        2.32560        2.71160
S          1.79260        0.90160        2.36200
C          4.64010        4.40500        5.14480
C          5.28600        5.58100        4.89710
S          5.13920        6.07100        3.22370
C          6.01000        6.34210        5.86540
C          6.25460        5.95350        7.14990
C          6.99610        6.89710        7.90000
C          7.36830        6.80440        9.25020
C          7.07380        5.58420       10.01240
C          7.46230        4.33840        9.51780
C          7.13470        3.18050       10.18810
C          6.40800        3.21800       11.37700
S          6.03970        1.67880       12.15820
C          4.33370        1.93750       12.79400
C          3.63090        0.59520       12.85180
C          6.06560        4.46900       11.88210
F          5.39400        4.57840       13.05090
C          6.38210        5.63720       11.21700
C          8.01900        7.90360        9.78730
C          8.33330        9.05980        9.03080
C          7.96930        9.14530        7.67790
C          8.25640       10.34030        6.87500
C          7.89080       11.60650        7.32250
C          8.14780       12.73410        6.56700
C          8.79410       12.63640        5.34010
S          9.17660       13.98860        4.27660
C          9.04570       15.45420        5.35840
C         10.14300       15.49820        6.40470
C          9.14120       11.35880        4.89710
C          8.88110       10.22640        5.63500
F          9.75990       11.22610        3.70750
C          7.30780        8.05010        7.14070
S          6.69600        7.91360        5.51020
C          9.06460       10.00650        9.80920
C          9.27360        9.59730       11.07680
S          8.60750        8.03830       11.42380
H        -10.56530      -15.07330       -7.46020
H         -8.61280       -6.60750       -9.41260
H         -5.10440       -3.86410       -9.21940
H         -5.73850       -2.20100      -10.90920
H         -9.82120        0.29720      -12.30890
H        -10.50090       -1.13560      -11.51740
H         -8.79340        1.01710      -10.14480
H        -10.55010        0.87010       -9.99470
H         -9.50040       -0.38460       -9.33530
H         -9.25490       -4.50410       -8.36480
H         -5.37300       -9.78370       -5.74240
H         -4.80400      -11.31080       -3.94920
H         -3.88330      -12.54150       -2.46840
H         -4.10580      -13.11760       -0.81120
H         -6.55720      -13.24850       -1.12780
H         -5.74480      -14.22510       -2.35630
H         -6.41140      -12.64240       -2.77750
H         -6.26630       -6.72780       -2.87570
H         -4.20920       -5.94270       -3.84300
H         -3.05770       -1.52370       -5.30460
H         -1.84850        2.26090       -3.21320
H         -1.78960        3.84150       -5.09150
H          0.77790        2.61500       -8.48940
H         -0.51600        2.29490       -9.67410
H          1.13000        3.92600      -10.60060
H          0.85740        4.99580       -9.21860
H         -0.44410        4.69800      -10.37400
H         -0.74470       -0.89560       -5.89120
H         -3.30880       -3.53180        0.04310
H         -3.26410       -5.39690        1.59460
H         -3.37510       -7.18460        2.75400
H         -2.46280       -8.63970        3.17530
H         -2.62830       -7.47230        0.34420
H         -3.53550       -8.87380        0.91460
H         -1.77140       -8.94300        0.81370
H          0.97220       -3.36270        0.10190
H          0.33360       -1.09600        0.98500
H          2.10640        3.11340       -0.50170
H          3.33610        7.00900        1.37250
H          3.77890        8.38380       -0.56820
H          4.81370        9.90650       -3.75530
H          4.74350        9.62530       -2.01070
H          2.41880        9.34710       -4.00220
H          2.60320       10.65500       -2.82780
H          2.28170        9.00550       -2.27850
H          4.48430        3.51230       -0.82210
H          1.06900        1.54180        5.01260
H          0.87780        0.26910        7.06800
H          0.64580       -1.01320        8.76270
H          1.21750       -1.24770       10.41970
H          1.28010        1.19960       10.79830
H          0.74570        1.50140        9.14470
H         -0.34270        0.71470       10.29400
H          5.31530        1.75600        5.52990
H          4.58510        3.96070        6.12040
H          5.90750        5.02590        7.56450
H          8.03070        4.28430        8.60160
H          7.42150        2.21750        9.79510
H          4.39560        2.39750       13.77930
H          3.83520        2.61500       12.10210
H          3.60700        0.13780       11.86480
H          2.61170        0.72610       13.21160
H          4.15320       -0.07750       13.52780
H          6.07330        6.57920       11.64270
H          7.37300       11.70870        8.26450
H          7.82920       13.69380        6.94070
H          8.04900       15.47960        5.79720
H          9.13890       16.28930        4.66420
H         11.11870       15.49230        5.92470
H         10.08360       14.63940        7.07020
H         10.05220       16.40560        6.99880
H          9.18740        9.26720        5.24890
H          9.42720       10.93890        9.41630
H          9.79110       10.11690       11.85950
