
  xtb     03032215053D
 energy: -508.179242132949 gnorm: 0.000232428289 xtb: 6.4.1 (unknown)
302331  0     0  0            999 V2000
    5.6175   -4.0089    9.6311 C   0  0  0  0  0  0  0  0  0  0  0  0
    6.2645   -3.1612    8.8063 C   0  0  0  0  0  0  0  0  0  0  0  0
    5.7773   -3.2075    7.4662 C   0  0  0  0  0  0  0  0  0  0  0  0
    6.2403   -2.4962    6.3453 C   0  0  0  0  0  0  0  0  0  0  0  0
    7.2402   -1.4283    6.4580 C   0  0  0  0  0  0  0  0  0  0  0  0
    8.2961   -1.3153    5.5546 C   0  0  0  0  0  0  0  0  0  0  0  0
    9.1697   -0.2517    5.6211 C   0  0  0  0  0  0  0  0  0  0  0  0
    9.0383    0.7421    6.5901 C   0  0  0  0  0  0  0  0  0  0  0  0
   10.2359    2.0437    6.5753 S   0  0  0  0  0  0  0  0  0  0  0  0
    9.2983    3.5419    7.0555 C   0  0  0  0  0  0  0  0  0  0  0  0
    8.1407    3.8191    6.1176 C   0  0  0  0  0  0  0  0  0  0  0  0
    8.0108    0.5912    7.5149 C   0  0  0  0  0  0  0  0  0  0  0  0
    7.8318    1.4876    8.5148 F   0  0  0  0  0  0  0  0  0  0  0  0
    7.1202   -0.4602    7.4513 C   0  0  0  0  0  0  0  0  0  0  0  0
    5.6613   -2.8188    5.1238 C   0  0  0  0  0  0  0  0  0  0  0  0
    4.6163   -3.7649    4.9914 C   0  0  0  0  0  0  0  0  0  0  0  0
    4.1443   -4.4650    6.1125 C   0  0  0  0  0  0  0  0  0  0  0  0
    3.1065   -5.4895    5.9544 C   0  0  0  0  0  0  0  0  0  0  0  0
    3.2478   -6.4730    4.9773 C   0  0  0  0  0  0  0  0  0  0  0  0
    2.2608   -7.4116    4.7584 C   0  0  0  0  0  0  0  0  0  0  0  0
    1.0869   -7.3946    5.5040 C   0  0  0  0  0  0  0  0  0  0  0  0
   -0.2580   -8.5096    5.2781 S   0  0  0  0  0  0  0  0  0  0  0  0
   -0.0260   -9.1201    3.5702 C   0  0  0  0  0  0  0  0  0  0  0  0
   -0.1970   -8.0267    2.5341 C   0  0  0  0  0  0  0  0  0  0  0  0
    0.9803   -6.4359    6.5131 C   0  0  0  0  0  0  0  0  0  0  0  0
    1.9618   -5.4975    6.7471 C   0  0  0  0  0  0  0  0  0  0  0  0
   -0.1302   -6.4084    7.2760 F   0  0  0  0  0  0  0  0  0  0  0  0
    4.7382   -4.1615    7.3289 C   0  0  0  0  0  0  0  0  0  0  0  0
    4.3770   -4.9272    8.8530 S   0  0  0  0  0  0  0  0  0  0  0  0
    4.1428   -3.8507    3.6571 C   0  0  0  0  0  0  0  0  0  0  0  0
    4.8067   -3.0445    2.7842 C   0  0  0  0  0  0  0  0  0  0  0  0
    6.0626   -2.1152    3.5773 S   0  0  0  0  0  0  0  0  0  0  0  0
    4.5796   -2.9286    1.3812 C   0  0  0  0  0  0  0  0  0  0  0  0
    5.1519   -2.0697    0.4922 C   0  0  0  0  0  0  0  0  0  0  0  0
    4.6648   -2.2150   -0.8325 C   0  0  0  0  0  0  0  0  0  0  0  0
    4.9581   -1.4254   -1.9571 C   0  0  0  0  0  0  0  0  0  0  0  0
    5.8498   -0.2593   -1.9020 C   0  0  0  0  0  0  0  0  0  0  0  0
    5.7158    0.6999   -0.9003 C   0  0  0  0  0  0  0  0  0  0  0  0
    6.5359    1.8102   -0.8908 C   0  0  0  0  0  0  0  0  0  0  0  0
    7.4967    1.9952   -1.8708 C   0  0  0  0  0  0  0  0  0  0  0  0
    7.6379    1.0436   -2.8716 C   0  0  0  0  0  0  0  0  0  0  0  0
    8.7988    1.1612   -4.1969 S   0  0  0  0  0  0  0  0  0  0  0  0
    9.8655    2.5785   -3.7338 C   0  0  0  0  0  0  0  0  0  0  0  0
   11.0166    2.6694   -4.7176 C   0  0  0  0  0  0  0  0  0  0  0  0
    6.8162   -0.0786   -2.8820 C   0  0  0  0  0  0  0  0  0  0  0  0
    4.2919   -1.7498   -3.1274 C   0  0  0  0  0  0  0  0  0  0  0  0
    3.3934   -2.8393   -3.2437 C   0  0  0  0  0  0  0  0  0  0  0  0
    3.0871   -3.6222   -2.1181 C   0  0  0  0  0  0  0  0  0  0  0  0
    2.0628   -4.6759   -2.1690 C   0  0  0  0  0  0  0  0  0  0  0  0
    0.8284   -4.4372   -2.7730 C   0  0  0  0  0  0  0  0  0  0  0  0
   -0.1241   -5.4355   -2.8307 C   0  0  0  0  0  0  0  0  0  0  0  0
    0.1152   -6.6739   -2.2608 C   0  0  0  0  0  0  0  0  0  0  0  0
    1.3323   -6.9123   -1.6397 C   0  0  0  0  0  0  0  0  0  0  0  0
    1.7102   -8.4409   -0.8207 S   0  0  0  0  0  0  0  0  0  0  0  0
    0.8477   -9.6916   -1.8400 C   0  0  0  0  0  0  0  0  0  0  0  0
    1.3519   -9.7066   -3.2692 C   0  0  0  0  0  0  0  0  0  0  0  0
    2.3041   -5.9219   -1.6032 C   0  0  0  0  0  0  0  0  0  0  0  0
    3.7305   -3.2771   -0.9387 C   0  0  0  0  0  0  0  0  0  0  0  0
    3.4305   -4.0100    0.6153 S   0  0  0  0  0  0  0  0  0  0  0  0
    2.7698   -2.8739   -4.5155 C   0  0  0  0  0  0  0  0  0  0  0  0
    3.0466   -1.7833   -5.2868 C   0  0  0  0  0  0  0  0  0  0  0  0
    4.2868   -0.7708   -4.5713 S   0  0  0  0  0  0  0  0  0  0  0  0
    2.1730   -1.2460   -6.2786 C   0  0  0  0  0  0  0  0  0  0  0  0
    2.0325    0.0844   -6.5485 C   0  0  0  0  0  0  0  0  0  0  0  0
    0.7477    0.4318   -7.0338 C   0  0  0  0  0  0  0  0  0  0  0  0
    0.1797    1.7183   -7.0816 C   0  0  0  0  0  0  0  0  0  0  0  0
    0.9454    2.8794   -6.6040 C   0  0  0  0  0  0  0  0  0  0  0  0
    1.0458    4.0564   -7.3373 C   0  0  0  0  0  0  0  0  0  0  0  0
    1.8009    5.1123   -6.8552 C   0  0  0  0  0  0  0  0  0  0  0  0
    2.4640    5.0144   -5.6446 C   0  0  0  0  0  0  0  0  0  0  0  0
    2.3563    3.8453   -4.9056 C   0  0  0  0  0  0  0  0  0  0  0  0
    3.1797    3.6414   -3.3365 S   0  0  0  0  0  0  0  0  0  0  0  0
    4.9175    3.9210   -3.8291 C   0  0  0  0  0  0  0  0  0  0  0  0
    5.3721    2.9280   -4.8781 C   0  0  0  0  0  0  0  0  0  0  0  0
    1.5898    2.7938   -5.3725 C   0  0  0  0  0  0  0  0  0  0  0  0
   -1.1662    1.7936   -7.4020 C   0  0  0  0  0  0  0  0  0  0  0  0
   -1.9458    0.6457   -7.6900 C   0  0  0  0  0  0  0  0  0  0  0  0
   -1.3883   -0.6418   -7.6125 C   0  0  0  0  0  0  0  0  0  0  0  0
   -2.2598   -1.8253   -7.7080 C   0  0  0  0  0  0  0  0  0  0  0  0
   -3.0210   -2.0643   -8.8496 C   0  0  0  0  0  0  0  0  0  0  0  0
   -3.8852   -3.1422   -8.8861 C   0  0  0  0  0  0  0  0  0  0  0  0
   -4.0099   -3.9922   -7.8006 C   0  0  0  0  0  0  0  0  0  0  0  0
   -3.2398   -3.7692   -6.6669 C   0  0  0  0  0  0  0  0  0  0  0  0
   -3.3134   -4.7830   -5.2234 S   0  0  0  0  0  0  0  0  0  0  0  0
   -4.1119   -6.3173   -5.8289 C   0  0  0  0  0  0  0  0  0  0  0  0
   -4.0264   -7.3903   -4.7609 C   0  0  0  0  0  0  0  0  0  0  0  0
   -2.3713   -2.6839   -6.6235 C   0  0  0  0  0  0  0  0  0  0  0  0
   -0.0549   -0.7161   -7.2577 C   0  0  0  0  0  0  0  0  0  0  0  0
    0.7961   -2.1805   -6.8357 S   0  0  0  0  0  0  0  0  0  0  0  0
   -3.3284    0.9385   -7.7272 C   0  0  0  0  0  0  0  0  0  0  0  0
   -3.6319    2.2316   -7.4053 C   0  0  0  0  0  0  0  0  0  0  0  0
   -2.1821    3.2098   -7.2262 S   0  0  0  0  0  0  0  0  0  0  0  0
   -4.8971    2.6373   -6.8726 C   0  0  0  0  0  0  0  0  0  0  0  0
   -5.8894    1.7519   -6.5578 C   0  0  0  0  0  0  0  0  0  0  0  0
   -6.7565    2.2102   -5.5405 C   0  0  0  0  0  0  0  0  0  0  0  0
   -7.5458    1.3823   -4.7305 C   0  0  0  0  0  0  0  0  0  0  0  0
   -7.5821   -0.0716   -4.9805 C   0  0  0  0  0  0  0  0  0  0  0  0
   -8.2744   -0.6607   -6.0309 C   0  0  0  0  0  0  0  0  0  0  0  0
   -8.2180   -2.0277   -6.2192 C   0  0  0  0  0  0  0  0  0  0  0  0
   -7.4521   -2.8473   -5.3923 C   0  0  0  0  0  0  0  0  0  0  0  0
   -7.4320   -4.5766   -5.7508 S   0  0  0  0  0  0  0  0  0  0  0  0
   -7.3636   -5.3777   -4.1033 C   0  0  0  0  0  0  0  0  0  0  0  0
   -8.5009   -4.9485   -3.2016 C   0  0  0  0  0  0  0  0  0  0  0  0
   -6.7294   -2.2357   -4.3722 C   0  0  0  0  0  0  0  0  0  0  0  0
   -5.9129   -2.9419   -3.5638 F   0  0  0  0  0  0  0  0  0  0  0  0
   -6.8063   -0.8766   -4.1528 C   0  0  0  0  0  0  0  0  0  0  0  0
   -7.9638    1.9163   -3.5291 C   0  0  0  0  0  0  0  0  0  0  0  0
   -7.6756    3.2412   -3.1096 C   0  0  0  0  0  0  0  0  0  0  0  0
   -6.9481    4.0913   -3.9622 C   0  0  0  0  0  0  0  0  0  0  0  0
   -6.5419    5.4507   -3.5748 C   0  0  0  0  0  0  0  0  0  0  0  0
   -5.8168    5.7019   -2.4122 C   0  0  0  0  0  0  0  0  0  0  0  0
   -5.4132    6.9832   -2.1026 C   0  0  0  0  0  0  0  0  0  0  0  0
   -5.7234    8.0618   -2.9278 C   0  0  0  0  0  0  0  0  0  0  0  0
   -5.1911    9.6656   -2.4033 S   0  0  0  0  0  0  0  0  0  0  0  0
   -4.6210   10.4673   -3.9475 C   0  0  0  0  0  0  0  0  0  0  0  0
   -3.5323    9.6676   -4.6341 C   0  0  0  0  0  0  0  0  0  0  0  0
   -6.4627    7.7979   -4.0766 C   0  0  0  0  0  0  0  0  0  0  0  0
   -6.8493    6.5163   -4.4129 C   0  0  0  0  0  0  0  0  0  0  0  0
   -6.8316    8.7961   -4.9076 F   0  0  0  0  0  0  0  0  0  0  0  0
   -6.4724    3.5381   -5.1438 C   0  0  0  0  0  0  0  0  0  0  0  0
   -5.1549    4.1948   -6.0979 S   0  0  0  0  0  0  0  0  0  0  0  0
   -7.9111    3.4044   -1.7154 C   0  0  0  0  0  0  0  0  0  0  0  0
   -8.2543    2.2414   -1.0862 C   0  0  0  0  0  0  0  0  0  0  0  0
   -8.6099    0.9522   -2.2289 S   0  0  0  0  0  0  0  0  0  0  0  0
   -7.8779    1.8489    0.2394 C   0  0  0  0  0  0  0  0  0  0  0  0
   -7.3366    0.6217    0.4914 C   0  0  0  0  0  0  0  0  0  0  0  0
   -6.4626    0.6020    1.6028 C   0  0  0  0  0  0  0  0  0  0  0  0
   -5.5111   -0.3929    1.8648 C   0  0  0  0  0  0  0  0  0  0  0  0
   -5.4542   -1.6329    1.0770 C   0  0  0  0  0  0  0  0  0  0  0  0
   -4.3016   -1.9542    0.3645 C   0  0  0  0  0  0  0  0  0  0  0  0
   -4.2040   -3.1325   -0.3467 C   0  0  0  0  0  0  0  0  0  0  0  0
   -5.2558   -4.0410   -0.3589 C   0  0  0  0  0  0  0  0  0  0  0  0
   -5.1957   -5.6120   -1.1504 S   0  0  0  0  0  0  0  0  0  0  0  0
   -3.4051   -5.9575   -1.2532 C   0  0  0  0  0  0  0  0  0  0  0  0
   -2.7543   -6.0922    0.1092 C   0  0  0  0  0  0  0  0  0  0  0  0
   -6.4276   -3.6793    0.3058 C   0  0  0  0  0  0  0  0  0  0  0  0
   -7.4865   -4.5152    0.2725 F   0  0  0  0  0  0  0  0  0  0  0  0
   -6.5410   -2.5012    1.0125 C   0  0  0  0  0  0  0  0  0  0  0  0
   -4.5304   -0.0661    2.7862 C   0  0  0  0  0  0  0  0  0  0  0  0
   -4.5365    1.1332    3.5388 C   0  0  0  0  0  0  0  0  0  0  0  0
   -5.5314    2.1046    3.3140 C   0  0  0  0  0  0  0  0  0  0  0  0
   -5.5534    3.3436    4.1001 C   0  0  0  0  0  0  0  0  0  0  0  0
   -5.6478    4.5981    3.5071 C   0  0  0  0  0  0  0  0  0  0  0  0
   -5.6819    5.7508    4.2686 C   0  0  0  0  0  0  0  0  0  0  0  0
   -5.6220    5.6912    5.6559 C   0  0  0  0  0  0  0  0  0  0  0  0
   -5.6847    7.0654    6.7541 S   0  0  0  0  0  0  0  0  0  0  0  0
   -5.5708    8.5264    5.6652 C   0  0  0  0  0  0  0  0  0  0  0  0
   -4.1685    8.7386    5.1263 C   0  0  0  0  0  0  0  0  0  0  0  0
   -5.5260    4.4247    6.2384 C   0  0  0  0  0  0  0  0  0  0  0  0
   -5.4878    3.2702    5.4920 C   0  0  0  0  0  0  0  0  0  0  0  0
   -5.4702    4.3274    7.5818 F   0  0  0  0  0  0  0  0  0  0  0  0
   -6.4232    1.8449    2.2812 C   0  0  0  0  0  0  0  0  0  0  0  0
   -7.5016    2.9965    1.5126 S   0  0  0  0  0  0  0  0  0  0  0  0
   -3.3335    1.2866    4.2877 C   0  0  0  0  0  0  0  0  0  0  0  0
   -2.4375    0.2877    4.0757 C   0  0  0  0  0  0  0  0  0  0  0  0
   -3.0776   -0.9859    3.0569 S   0  0  0  0  0  0  0  0  0  0  0  0
   -1.0141    0.2691    4.3052 C   0  0  0  0  0  0  0  0  0  0  0  0
   -0.1304    0.0975    3.2869 C   0  0  0  0  0  0  0  0  0  0  0  0
    1.2250    0.2627    3.6683 C   0  0  0  0  0  0  0  0  0  0  0  0
    2.3488    0.2899    2.8275 C   0  0  0  0  0  0  0  0  0  0  0  0
    2.1599    0.0375    1.3910 C   0  0  0  0  0  0  0  0  0  0  0  0
    2.5287    0.9719    0.4273 C   0  0  0  0  0  0  0  0  0  0  0  0
    2.2006    0.7805   -0.9028 C   0  0  0  0  0  0  0  0  0  0  0  0
    1.4828   -0.3387   -1.2970 C   0  0  0  0  0  0  0  0  0  0  0  0
    0.9462   -0.5238   -2.9877 S   0  0  0  0  0  0  0  0  0  0  0  0
   -0.4198    0.6955   -2.9906 C   0  0  0  0  0  0  0  0  0  0  0  0
   -1.5742    0.2539   -2.1135 C   0  0  0  0  0  0  0  0  0  0  0  0
    1.1598   -1.2908   -0.3380 C   0  0  0  0  0  0  0  0  0  0  0  0
    0.4534   -2.3837   -0.6784 F   0  0  0  0  0  0  0  0  0  0  0  0
    1.4947   -1.1184    0.9897 C   0  0  0  0  0  0  0  0  0  0  0  0
    3.5563    0.6147    3.4246 C   0  0  0  0  0  0  0  0  0  0  0  0
    3.6939    0.7724    4.8260 C   0  0  0  0  0  0  0  0  0  0  0  0
    2.5746    0.7041    5.6665 C   0  0  0  0  0  0  0  0  0  0  0  0
    2.7023    0.8072    7.1264 C   0  0  0  0  0  0  0  0  0  0  0  0
    2.0070    1.7651    7.8594 C   0  0  0  0  0  0  0  0  0  0  0  0
    2.1501    1.8361    9.2287 C   0  0  0  0  0  0  0  0  0  0  0  0
    2.9669    0.9440    9.9220 C   0  0  0  0  0  0  0  0  0  0  0  0
    3.0359    1.1100   11.6800 S   0  0  0  0  0  0  0  0  0  0  0  0
    4.7774    0.7317   12.1057 C   0  0  0  0  0  0  0  0  0  0  0  0
    5.7505    1.6554   11.4020 C   0  0  0  0  0  0  0  0  0  0  0  0
    3.6150   -0.0372    9.1778 C   0  0  0  0  0  0  0  0  0  0  0  0
    3.5101   -0.1000    7.8032 C   0  0  0  0  0  0  0  0  0  0  0  0
    4.3793   -0.9755    9.7828 F   0  0  0  0  0  0  0  0  0  0  0  0
    1.3441    0.5221    5.0529 C   0  0  0  0  0  0  0  0  0  0  0  0
   -0.2219    0.5791    5.8307 S   0  0  0  0  0  0  0  0  0  0  0  0
    5.0398    1.0784    5.1891 C   0  0  0  0  0  0  0  0  0  0  0  0
    5.8654    1.1678    4.1286 C   0  0  0  0  0  0  0  0  0  0  0  0
    5.0778    0.8771    2.6160 S   0  0  0  0  0  0  0  0  0  0  0  0
    5.7877   -4.1639   10.6784 H   0  0  0  0  0  0  0  0  0  0  0  0
    7.0787   -2.5354    9.1219 H   0  0  0  0  0  0  0  0  0  0  0  0
    8.4396   -2.0716    4.7993 H   0  0  0  0  0  0  0  0  0  0  0  0
    9.9796   -0.1675    4.9131 H   0  0  0  0  0  0  0  0  0  0  0  0
   10.0487    4.3303    6.9959 H   0  0  0  0  0  0  0  0  0  0  0  0
    8.9720    3.4421    8.0882 H   0  0  0  0  0  0  0  0  0  0  0  0
    7.6696    4.7623    6.3868 H   0  0  0  0  0  0  0  0  0  0  0  0
    7.3904    3.0332    6.1796 H   0  0  0  0  0  0  0  0  0  0  0  0
    8.4893    3.8840    5.0888 H   0  0  0  0  0  0  0  0  0  0  0  0
    6.3299   -0.5071    8.1825 H   0  0  0  0  0  0  0  0  0  0  0  0
    4.1530   -6.5139    4.3903 H   0  0  0  0  0  0  0  0  0  0  0  0
    2.4130   -8.1594    3.9972 H   0  0  0  0  0  0  0  0  0  0  0  0
    0.9445   -9.6090    3.4993 H   0  0  0  0  0  0  0  0  0  0  0  0
   -0.8027   -9.8781    3.4686 H   0  0  0  0  0  0  0  0  0  0  0  0
   -0.0611   -8.4406    1.5371 H   0  0  0  0  0  0  0  0  0  0  0  0
   -1.1906   -7.5908    2.6051 H   0  0  0  0  0  0  0  0  0  0  0  0
    0.5360   -7.2351    2.6738 H   0  0  0  0  0  0  0  0  0  0  0  0
    1.8119   -4.7625    7.5222 H   0  0  0  0  0  0  0  0  0  0  0  0
    3.3237   -4.4779    3.3540 H   0  0  0  0  0  0  0  0  0  0  0  0
    5.9021   -1.3544    0.7776 H   0  0  0  0  0  0  0  0  0  0  0  0
    4.9521    0.5843   -0.1497 H   0  0  0  0  0  0  0  0  0  0  0  0
    6.4222    2.5500   -0.1117 H   0  0  0  0  0  0  0  0  0  0  0  0
    8.1174    2.8766   -1.8452 H   0  0  0  0  0  0  0  0  0  0  0  0
    9.2590    3.4848   -3.7614 H   0  0  0  0  0  0  0  0  0  0  0  0
   10.2297    2.4009   -2.7218 H   0  0  0  0  0  0  0  0  0  0  0  0
   11.6607    3.5069   -4.4581 H   0  0  0  0  0  0  0  0  0  0  0  0
   11.6051    1.7554   -4.6979 H   0  0  0  0  0  0  0  0  0  0  0  0
   10.6424    2.8151   -5.7282 H   0  0  0  0  0  0  0  0  0  0  0  0
    6.9515   -0.8154   -3.6594 H   0  0  0  0  0  0  0  0  0  0  0  0
    0.6036   -3.4587   -3.1655 H   0  0  0  0  0  0  0  0  0  0  0  0
   -1.0666   -5.2470   -3.3236 H   0  0  0  0  0  0  0  0  0  0  0  0
   -0.6482   -7.4360   -2.2968 H   0  0  0  0  0  0  0  0  0  0  0  0
   -0.2256   -9.5099   -1.7858 H   0  0  0  0  0  0  0  0  0  0  0  0
    1.0673  -10.6325   -1.3357 H   0  0  0  0  0  0  0  0  0  0  0  0
    0.8515  -10.4931   -3.8308 H   0  0  0  0  0  0  0  0  0  0  0  0
    2.4235   -9.8916   -3.2883 H   0  0  0  0  0  0  0  0  0  0  0  0
    1.1583   -8.7527   -3.7567 H   0  0  0  0  0  0  0  0  0  0  0  0
    3.2553   -6.1394   -1.1418 H   0  0  0  0  0  0  0  0  0  0  0  0
    2.0624   -3.6242   -4.8170 H   0  0  0  0  0  0  0  0  0  0  0  0
    2.7987    0.7990   -6.3096 H   0  0  0  0  0  0  0  0  0  0  0  0
    0.5461    4.1370   -8.2910 H   0  0  0  0  0  0  0  0  0  0  0  0
    1.8767    6.0228   -7.4309 H   0  0  0  0  0  0  0  0  0  0  0  0
    3.0524    5.8415   -5.2764 H   0  0  0  0  0  0  0  0  0  0  0  0
    5.4779    3.7981   -2.9025 H   0  0  0  0  0  0  0  0  0  0  0  0
    5.0110    4.9505   -4.1754 H   0  0  0  0  0  0  0  0  0  0  0  0
    6.4260    3.0787   -5.1018 H   0  0  0  0  0  0  0  0  0  0  0  0
    5.2390    1.9095   -4.5198 H   0  0  0  0  0  0  0  0  0  0  0  0
    4.8037    3.0525   -5.7986 H   0  0  0  0  0  0  0  0  0  0  0  0
    1.4960    1.9044   -4.7698 H   0  0  0  0  0  0  0  0  0  0  0  0
   -2.9274   -1.4077   -9.7019 H   0  0  0  0  0  0  0  0  0  0  0  0
   -4.4814   -3.3242   -9.7682 H   0  0  0  0  0  0  0  0  0  0  0  0
   -4.7135   -4.8073   -7.8476 H   0  0  0  0  0  0  0  0  0  0  0  0
   -3.5803   -6.6188   -6.7319 H   0  0  0  0  0  0  0  0  0  0  0  0
   -5.1520   -6.0894   -6.0621 H   0  0  0  0  0  0  0  0  0  0  0  0
   -2.9881   -7.5841   -4.4990 H   0  0  0  0  0  0  0  0  0  0  0  0
   -4.5633   -7.0793   -3.8676 H   0  0  0  0  0  0  0  0  0  0  0  0
   -4.4715   -8.3118   -5.1303 H   0  0  0  0  0  0  0  0  0  0  0  0
   -1.7982   -2.5046   -5.7264 H   0  0  0  0  0  0  0  0  0  0  0  0
   -4.0692    0.1762   -7.8815 H   0  0  0  0  0  0  0  0  0  0  0  0
   -5.9283    0.7431   -6.9246 H   0  0  0  0  0  0  0  0  0  0  0  0
   -8.8702   -0.0489   -6.6909 H   0  0  0  0  0  0  0  0  0  0  0  0
   -8.7706   -2.4895   -7.0230 H   0  0  0  0  0  0  0  0  0  0  0  0
   -7.4313   -6.4399   -4.3396 H   0  0  0  0  0  0  0  0  0  0  0  0
   -6.3949   -5.1738   -3.6538 H   0  0  0  0  0  0  0  0  0  0  0  0
   -8.4624   -3.8786   -3.0042 H   0  0  0  0  0  0  0  0  0  0  0  0
   -8.4175   -5.4696   -2.2504 H   0  0  0  0  0  0  0  0  0  0  0  0
   -9.4632   -5.1829   -3.6520 H   0  0  0  0  0  0  0  0  0  0  0  0
   -6.2263   -0.4501   -3.3485 H   0  0  0  0  0  0  0  0  0  0  0  0
   -5.5329    4.8824   -1.7697 H   0  0  0  0  0  0  0  0  0  0  0  0
   -4.8382    7.1738   -1.2096 H   0  0  0  0  0  0  0  0  0  0  0  0
   -4.2446   11.4305   -3.6025 H   0  0  0  0  0  0  0  0  0  0  0  0
   -5.4772   10.6340   -4.5972 H   0  0  0  0  0  0  0  0  0  0  0  0
   -3.1694   10.2152   -5.5015 H   0  0  0  0  0  0  0  0  0  0  0  0
   -3.9094    8.7035   -4.9707 H   0  0  0  0  0  0  0  0  0  0  0  0
   -2.6994    9.4939   -3.9558 H   0  0  0  0  0  0  0  0  0  0  0  0
   -7.4128    6.3633   -5.3205 H   0  0  0  0  0  0  0  0  0  0  0  0
   -7.6989    4.3105   -1.1773 H   0  0  0  0  0  0  0  0  0  0  0  0
   -7.4382   -0.2122   -0.1795 H   0  0  0  0  0  0  0  0  0  0  0  0
   -3.4719   -1.2644    0.3502 H   0  0  0  0  0  0  0  0  0  0  0  0
   -3.2991   -3.3376   -0.8947 H   0  0  0  0  0  0  0  0  0  0  0  0
   -2.9400   -5.1860   -1.8639 H   0  0  0  0  0  0  0  0  0  0  0  0
   -3.3619   -6.9019   -1.7948 H   0  0  0  0  0  0  0  0  0  0  0  0
   -1.6922   -6.2979   -0.0122 H   0  0  0  0  0  0  0  0  0  0  0  0
   -2.8597   -5.1769    0.6877 H   0  0  0  0  0  0  0  0  0  0  0  0
   -3.2119   -6.9069    0.6665 H   0  0  0  0  0  0  0  0  0  0  0  0
   -7.4606   -2.2830    1.5331 H   0  0  0  0  0  0  0  0  0  0  0  0
   -5.6747    4.6830    2.4321 H   0  0  0  0  0  0  0  0  0  0  0  0
   -5.7614    6.6995    3.7639 H   0  0  0  0  0  0  0  0  0  0  0  0
   -6.3138    8.4296    4.8748 H   0  0  0  0  0  0  0  0  0  0  0  0
   -5.8629    9.3511    6.3153 H   0  0  0  0  0  0  0  0  0  0  0  0
   -3.8445    7.8898    4.5281 H   0  0  0  0  0  0  0  0  0  0  0  0
   -4.1422    9.6321    4.5054 H   0  0  0  0  0  0  0  0  0  0  0  0
   -3.4674    8.8647    5.9479 H   0  0  0  0  0  0  0  0  0  0  0  0
   -5.4291    2.3183    5.9964 H   0  0  0  0  0  0  0  0  0  0  0  0
   -3.1073    2.1590    4.8744 H   0  0  0  0  0  0  0  0  0  0  0  0
   -0.4465   -0.0771    2.2745 H   0  0  0  0  0  0  0  0  0  0  0  0
    3.0404    1.8742    0.7254 H   0  0  0  0  0  0  0  0  0  0  0  0
    2.4798    1.5178   -1.6408 H   0  0  0  0  0  0  0  0  0  0  0  0
   -0.7228    0.7593   -4.0364 H   0  0  0  0  0  0  0  0  0  0  0  0
   -0.0118    1.6553   -2.6719 H   0  0  0  0  0  0  0  0  0  0  0  0
   -1.2647    0.2012   -1.0705 H   0  0  0  0  0  0  0  0  0  0  0  0
   -1.9318   -0.7270   -2.4199 H   0  0  0  0  0  0  0  0  0  0  0  0
   -2.3937    0.9659   -2.1949 H   0  0  0  0  0  0  0  0  0  0  0  0
    1.2174   -1.8775    1.7052 H   0  0  0  0  0  0  0  0  0  0  0  0
    1.3729    2.4733    7.3490 H   0  0  0  0  0  0  0  0  0  0  0  0
    1.6260    2.5907    9.7939 H   0  0  0  0  0  0  0  0  0  0  0  0
    4.9766   -0.3159   11.8913 H   0  0  0  0  0  0  0  0  0  0  0  0
    4.8042    0.8826   13.1849 H   0  0  0  0  0  0  0  0  0  0  0  0
    5.7122    1.5197   10.3234 H   0  0  0  0  0  0  0  0  0  0  0  0
    6.7645    1.4431   11.7343 H   0  0  0  0  0  0  0  0  0  0  0  0
    5.5202    2.6949   11.6251 H   0  0  0  0  0  0  0  0  0  0  0  0
    4.0276   -0.8830    7.2687 H   0  0  0  0  0  0  0  0  0  0  0  0
    5.3468    1.2412    6.2060 H   0  0  0  0  0  0  0  0  0  0  0  0
    6.9158    1.3830    4.1221 H   0  0  0  0  0  0  0  0  0  0  0  0
  1  2  2  0  0  0  0
  2  3  1  0  0  0  0
  3  4  2  0  0  0  0
  4  5  1  0  0  0  0
  5  6  2  0  0  0  0
  6  7  1  0  0  0  0
  7  8  2  0  0  0  0
  8  9  1  0  0  0  0
  9 10  1  0  0  0  0
 10 11  1  0  0  0  0
  8 12  1  0  0  0  0
 12 13  1  0  0  0  0
 12 14  2  0  0  0  0
  4 15  1  0  0  0  0
 15 16  2  0  0  0  0
 16 17  1  0  0  0  0
 17 18  1  0  0  0  0
 18 19  2  0  0  0  0
 19 20  1  0  0  0  0
 20 21  2  0  0  0  0
 21 22  1  0  0  0  0
 22 23  1  0  0  0  0
 23 24  1  0  0  0  0
 21 25  1  0  0  0  0
 25 26  2  0  0  0  0
 25 27  1  0  0  0  0
 17 28  2  0  0  0  0
 28 29  1  0  0  0  0
 16 30  1  0  0  0  0
 30 31  2  0  0  0  0
 31 32  1  0  0  0  0
 31 33  1  0  0  0  0
 33 34  2  0  0  0  0
 34 35  1  0  0  0  0
 35 36  2  0  0  0  0
 36 37  1  0  0  0  0
 37 38  2  0  0  0  0
 38 39  1  0  0  0  0
 39 40  2  0  0  0  0
 40 41  1  0  0  0  0
 41 42  1  0  0  0  0
 42 43  1  0  0  0  0
 43 44  1  0  0  0  0
 41 45  2  0  0  0  0
 36 46  1  0  0  0  0
 46 47  2  0  0  0  0
 47 48  1  0  0  0  0
 48 49  1  0  0  0  0
 49 50  2  0  0  0  0
 50 51  1  0  0  0  0
 51 52  2  0  0  0  0
 52 53  1  0  0  0  0
 53 54  1  0  0  0  0
 54 55  1  0  0  0  0
 55 56  1  0  0  0  0
 53 57  2  0  0  0  0
 48 58  2  0  0  0  0
 58 59  1  0  0  0  0
 47 60  1  0  0  0  0
 60 61  2  0  0  0  0
 61 62  1  0  0  0  0
 61 63  1  0  0  0  0
 63 64  2  0  0  0  0
 64 65  1  0  0  0  0
 65 66  2  0  0  0  0
 66 67  1  0  0  0  0
 67 68  2  0  0  0  0
 68 69  1  0  0  0  0
 69 70  2  0  0  0  0
 70 71  1  0  0  0  0
 71 72  1  0  0  0  0
 72 73  1  0  0  0  0
 73 74  1  0  0  0  0
 71 75  2  0  0  0  0
 66 76  1  0  0  0  0
 76 77  2  0  0  0  0
 77 78  1  0  0  0  0
 78 79  1  0  0  0  0
 79 80  2  0  0  0  0
 80 81  1  0  0  0  0
 81 82  2  0  0  0  0
 82 83  1  0  0  0  0
 83 84  1  0  0  0  0
 84 85  1  0  0  0  0
 85 86  1  0  0  0  0
 83 87  2  0  0  0  0
 78 88  2  0  0  0  0
 88 89  1  0  0  0  0
 77 90  1  0  0  0  0
 90 91  2  0  0  0  0
 91 92  1  0  0  0  0
 91 93  1  0  0  0  0
 93 94  2  0  0  0  0
 94 95  1  0  0  0  0
 95 96  2  0  0  0  0
 96 97  1  0  0  0  0
 97 98  2  0  0  0  0
 98 99  1  0  0  0  0
 99100  2  0  0  0  0
100101  1  0  0  0  0
101102  1  0  0  0  0
102103  1  0  0  0  0
100104  1  0  0  0  0
104105  1  0  0  0  0
104106  2  0  0  0  0
 96107  1  0  0  0  0
107108  2  0  0  0  0
108109  1  0  0  0  0
109110  1  0  0  0  0
110111  2  0  0  0  0
111112  1  0  0  0  0
112113  2  0  0  0  0
113114  1  0  0  0  0
114115  1  0  0  0  0
115116  1  0  0  0  0
113117  1  0  0  0  0
117118  2  0  0  0  0
117119  1  0  0  0  0
109120  2  0  0  0  0
120121  1  0  0  0  0
108122  1  0  0  0  0
122123  2  0  0  0  0
123124  1  0  0  0  0
123125  1  0  0  0  0
125126  2  0  0  0  0
126127  1  0  0  0  0
127128  2  0  0  0  0
128129  1  0  0  0  0
129130  2  0  0  0  0
130131  1  0  0  0  0
131132  2  0  0  0  0
132133  1  0  0  0  0
133134  1  0  0  0  0
134135  1  0  0  0  0
132136  1  0  0  0  0
136137  1  0  0  0  0
136138  2  0  0  0  0
128139  1  0  0  0  0
139140  2  0  0  0  0
140141  1  0  0  0  0
141142  1  0  0  0  0
142143  2  0  0  0  0
143144  1  0  0  0  0
144145  2  0  0  0  0
145146  1  0  0  0  0
146147  1  0  0  0  0
147148  1  0  0  0  0
145149  1  0  0  0  0
149150  2  0  0  0  0
149151  1  0  0  0  0
141152  2  0  0  0  0
152153  1  0  0  0  0
140154  1  0  0  0  0
154155  2  0  0  0  0
155156  1  0  0  0  0
155157  1  0  0  0  0
157158  2  0  0  0  0
158159  1  0  0  0  0
159160  2  0  0  0  0
160161  1  0  0  0  0
161162  2  0  0  0  0
162163  1  0  0  0  0
163164  2  0  0  0  0
164165  1  0  0  0  0
165166  1  0  0  0  0
166167  1  0  0  0  0
164168  1  0  0  0  0
168169  1  0  0  0  0
168170  2  0  0  0  0
160171  1  0  0  0  0
171172  2  0  0  0  0
172173  1  0  0  0  0
173174  1  0  0  0  0
174175  2  0  0  0  0
175176  1  0  0  0  0
176177  2  0  0  0  0
177178  1  0  0  0  0
178179  1  0  0  0  0
179180  1  0  0  0  0
177181  1  0  0  0  0
181182  2  0  0  0  0
181183  1  0  0  0  0
173184  2  0  0  0  0
184185  1  0  0  0  0
172186  1  0  0  0  0
186187  2  0  0  0  0
187188  1  0  0  0  0
 29  1  1  0  0  0  0
 59 33  1  0  0  0  0
 89 63  1  0  0  0  0
121 93  1  0  0  0  0
153125  1  0  0  0  0
185157  1  0  0  0  0
 28  3  1  0  0  0  0
 58 35  1  0  0  0  0
 88 65  1  0  0  0  0
120 95  1  0  0  0  0
152127  1  0  0  0  0
184159  1  0  0  0  0
 14  5  1  0  0  0  0
 32 15  1  0  0  0  0
 45 37  1  0  0  0  0
 62 46  1  0  0  0  0
 75 67  1  0  0  0  0
 92 76  1  0  0  0  0
106 97  1  0  0  0  0
124107  1  0  0  0  0
138129  1  0  0  0  0
156139  1  0  0  0  0
170161  1  0  0  0  0
188171  1  0  0  0  0
 26 18  1  0  0  0  0
 57 49  1  0  0  0  0
 87 79  1  0  0  0  0
118110  1  0  0  0  0
150142  1  0  0  0  0
182174  1  0  0  0  0
  1189  1  0  0  0  0
  2190  1  0  0  0  0
  6191  1  0  0  0  0
  7192  1  0  0  0  0
 10193  1  0  0  0  0
 10194  1  0  0  0  0
 11195  1  0  0  0  0
 11196  1  0  0  0  0
 11197  1  0  0  0  0
 14198  1  0  0  0  0
 19199  1  0  0  0  0
 20200  1  0  0  0  0
 23201  1  0  0  0  0
 23202  1  0  0  0  0
 24203  1  0  0  0  0
 24204  1  0  0  0  0
 24205  1  0  0  0  0
 26206  1  0  0  0  0
 30207  1  0  0  0  0
 34208  1  0  0  0  0
 38209  1  0  0  0  0
 39210  1  0  0  0  0
 40211  1  0  0  0  0
 43212  1  0  0  0  0
 43213  1  0  0  0  0
 44214  1  0  0  0  0
 44215  1  0  0  0  0
 44216  1  0  0  0  0
 45217  1  0  0  0  0
 50218  1  0  0  0  0
 51219  1  0  0  0  0
 52220  1  0  0  0  0
 55221  1  0  0  0  0
 55222  1  0  0  0  0
 56223  1  0  0  0  0
 56224  1  0  0  0  0
 56225  1  0  0  0  0
 57226  1  0  0  0  0
 60227  1  0  0  0  0
 64228  1  0  0  0  0
 68229  1  0  0  0  0
 69230  1  0  0  0  0
 70231  1  0  0  0  0
 73232  1  0  0  0  0
 73233  1  0  0  0  0
 74234  1  0  0  0  0
 74235  1  0  0  0  0
 74236  1  0  0  0  0
 75237  1  0  0  0  0
 80238  1  0  0  0  0
 81239  1  0  0  0  0
 82240  1  0  0  0  0
 85241  1  0  0  0  0
 85242  1  0  0  0  0
 86243  1  0  0  0  0
 86244  1  0  0  0  0
 86245  1  0  0  0  0
 87246  1  0  0  0  0
 90247  1  0  0  0  0
 94248  1  0  0  0  0
 98249  1  0  0  0  0
 99250  1  0  0  0  0
102251  1  0  0  0  0
102252  1  0  0  0  0
103253  1  0  0  0  0
103254  1  0  0  0  0
103255  1  0  0  0  0
106256  1  0  0  0  0
111257  1  0  0  0  0
112258  1  0  0  0  0
115259  1  0  0  0  0
115260  1  0  0  0  0
116261  1  0  0  0  0
116262  1  0  0  0  0
116263  1  0  0  0  0
118264  1  0  0  0  0
122265  1  0  0  0  0
126266  1  0  0  0  0
130267  1  0  0  0  0
131268  1  0  0  0  0
134269  1  0  0  0  0
134270  1  0  0  0  0
135271  1  0  0  0  0
135272  1  0  0  0  0
135273  1  0  0  0  0
138274  1  0  0  0  0
143275  1  0  0  0  0
144276  1  0  0  0  0
147277  1  0  0  0  0
147278  1  0  0  0  0
148279  1  0  0  0  0
148280  1  0  0  0  0
148281  1  0  0  0  0
150282  1  0  0  0  0
154283  1  0  0  0  0
158284  1  0  0  0  0
162285  1  0  0  0  0
163286  1  0  0  0  0
166287  1  0  0  0  0
166288  1  0  0  0  0
167289  1  0  0  0  0
167290  1  0  0  0  0
167291  1  0  0  0  0
170292  1  0  0  0  0
175293  1  0  0  0  0
176294  1  0  0  0  0
179295  1  0  0  0  0
179296  1  0  0  0  0
180297  1  0  0  0  0
180298  1  0  0  0  0
180299  1  0  0  0  0
182300  1  0  0  0  0
186301  1  0  0  0  0
187302  1  0  0  0  0
M  END
