
  xtb     03032204283D
 energy: -468.721287075087 gnorm: 0.000297190654 xtb: 6.4.1 (unknown)
242268  0     0  0            999 V2000
   -0.6346   -2.3793   11.7719 C   0  0  0  0  0  0  0  0  0  0  0  0
   -1.3708   -1.3091   11.4107 C   0  0  0  0  0  0  0  0  0  0  0  0
   -1.5926   -1.2380   10.0035 C   0  0  0  0  0  0  0  0  0  0  0  0
   -2.2798   -0.2517    9.2775 C   0  0  0  0  0  0  0  0  0  0  0  0
   -2.8193    0.9278    9.9377 C   0  0  0  0  0  0  0  0  0  0  0  0
   -1.7944    1.9262   10.9304 S   0  0  0  0  0  0  0  0  0  0  0  0
   -3.0729    3.0391   11.2785 C   0  0  0  0  0  0  0  0  0  0  0  0
   -2.8407    4.2504   12.1124 C   0  0  0  0  0  0  0  0  0  0  0  0
   -2.3396    5.4165   11.2571 C   0  0  0  0  0  0  0  0  0  0  0  0
   -4.2165    2.6535   10.6471 C   0  0  0  0  0  0  0  0  0  0  0  0
   -5.7029    3.5055   10.7560 Cl  0  0  0  0  0  0  0  0  0  0  0  0
   -4.0771    1.4593    9.8892 C   0  0  0  0  0  0  0  0  0  0  0  0
   -5.4020    0.7478    9.0754 Cl  0  0  0  0  0  0  0  0  0  0  0  0
   -2.3663   -0.4249    7.9002 C   0  0  0  0  0  0  0  0  0  0  0  0
   -1.7719   -1.5215    7.2288 C   0  0  0  0  0  0  0  0  0  0  0  0
   -1.0642   -2.4918    7.9501 C   0  0  0  0  0  0  0  0  0  0  0  0
   -0.3604   -3.5743    7.2786 C   0  0  0  0  0  0  0  0  0  0  0  0
    0.8500   -3.2306    6.0763 S   0  0  0  0  0  0  0  0  0  0  0  0
    1.2483   -4.9031    5.8806 C   0  0  0  0  0  0  0  0  0  0  0  0
    2.2990   -5.3465    4.9224 C   0  0  0  0  0  0  0  0  0  0  0  0
    1.6949   -5.8312    3.6029 C   0  0  0  0  0  0  0  0  0  0  0  0
    0.4640   -5.6705    6.6887 C   0  0  0  0  0  0  0  0  0  0  0  0
   -0.4434   -4.9217    7.4863 C   0  0  0  0  0  0  0  0  0  0  0  0
   -1.5681   -5.6619    8.5470 Cl  0  0  0  0  0  0  0  0  0  0  0  0
    0.5619   -7.3806    6.7648 Cl  0  0  0  0  0  0  0  0  0  0  0  0
   -1.0045   -2.3342    9.3305 C   0  0  0  0  0  0  0  0  0  0  0  0
   -0.1662   -3.3793   10.4418 S   0  0  0  0  0  0  0  0  0  0  0  0
   -1.9900   -1.4616    5.8259 C   0  0  0  0  0  0  0  0  0  0  0  0
   -2.7099   -0.3836    5.4317 C   0  0  0  0  0  0  0  0  0  0  0  0
   -3.1257    0.6595    6.7729 S   0  0  0  0  0  0  0  0  0  0  0  0
   -3.0200    0.0114    4.0641 C   0  0  0  0  0  0  0  0  0  0  0  0
   -1.9673    0.1344    3.1878 C   0  0  0  0  0  0  0  0  0  0  0  0
   -2.1609    0.5668    1.8784 C   0  0  0  0  0  0  0  0  0  0  0  0
   -3.4047    0.9701    1.4459 C   0  0  0  0  0  0  0  0  0  0  0  0
   -3.6484    1.3842    0.1780 O   0  0  0  0  0  0  0  0  0  0  0  0
   -2.6183    1.2778   -0.7888 C   0  0  0  0  0  0  0  0  0  0  0  0
   -3.1881    1.6690   -2.1421 C   0  0  0  0  0  0  0  0  0  0  0  0
   -4.5200    0.9119    2.3410 C   0  0  0  0  0  0  0  0  0  0  0  0
   -4.3336    0.3259    3.6201 C   0  0  0  0  0  0  0  0  0  0  0  0
   -5.4834   -0.0070    4.4017 C   0  0  0  0  0  0  0  0  0  0  0  0
   -5.2486   -0.7652    5.4968 O   0  0  0  0  0  0  0  0  0  0  0  0
   -6.3283   -1.3011    6.2353 C   0  0  0  0  0  0  0  0  0  0  0  0
   -5.7453   -2.2976    7.2257 C   0  0  0  0  0  0  0  0  0  0  0  0
   -6.7343    0.3895    3.9896 C   0  0  0  0  0  0  0  0  0  0  0  0
   -6.8889    1.1023    2.8002 C   0  0  0  0  0  0  0  0  0  0  0  0
   -5.8224    1.3550    1.9728 C   0  0  0  0  0  0  0  0  0  0  0  0
   -6.0412    2.0934    0.7323 C   0  0  0  0  0  0  0  0  0  0  0  0
   -6.7083    1.6873   -0.3734 C   0  0  0  0  0  0  0  0  0  0  0  0
   -6.5878    2.5887   -1.4662 C   0  0  0  0  0  0  0  0  0  0  0  0
   -6.9517    2.3570   -2.8011 C   0  0  0  0  0  0  0  0  0  0  0  0
   -7.6545    1.1389   -3.1878 C   0  0  0  0  0  0  0  0  0  0  0  0
   -9.2792    0.8243   -2.6610 S   0  0  0  0  0  0  0  0  0  0  0  0
   -9.3350   -0.6965   -3.4861 C   0  0  0  0  0  0  0  0  0  0  0  0
  -10.5697   -1.5287   -3.4964 C   0  0  0  0  0  0  0  0  0  0  0  0
  -11.4760   -1.1431   -4.6680 C   0  0  0  0  0  0  0  0  0  0  0  0
   -8.1558   -0.9296   -4.1274 C   0  0  0  0  0  0  0  0  0  0  0  0
   -7.8324   -2.3391   -5.0497 Cl  0  0  0  0  0  0  0  0  0  0  0  0
   -7.1971    0.1052   -3.9548 C   0  0  0  0  0  0  0  0  0  0  0  0
   -5.6109    0.0035   -4.6000 Cl  0  0  0  0  0  0  0  0  0  0  0  0
   -6.4774    3.2504   -3.7479 C   0  0  0  0  0  0  0  0  0  0  0  0
   -5.6909    4.3797   -3.4127 C   0  0  0  0  0  0  0  0  0  0  0  0
   -5.4151    4.6707   -2.0638 C   0  0  0  0  0  0  0  0  0  0  0  0
   -4.6064    5.8259   -1.7241 C   0  0  0  0  0  0  0  0  0  0  0  0
   -3.2158    5.7036   -0.6870 S   0  0  0  0  0  0  0  0  0  0  0  0
   -2.8359    7.3826   -0.8695 C   0  0  0  0  0  0  0  0  0  0  0  0
   -1.6917    7.9946   -0.1396 C   0  0  0  0  0  0  0  0  0  0  0  0
   -2.0531    8.2472    1.3258 C   0  0  0  0  0  0  0  0  0  0  0  0
   -3.7479    7.9911   -1.6794 C   0  0  0  0  0  0  0  0  0  0  0  0
   -4.7453    7.1106   -2.1753 C   0  0  0  0  0  0  0  0  0  0  0  0
   -6.0277    7.6432   -3.1835 Cl  0  0  0  0  0  0  0  0  0  0  0  0
   -3.7121    9.6586   -2.0825 Cl  0  0  0  0  0  0  0  0  0  0  0  0
   -5.8343    3.7369   -1.1225 C   0  0  0  0  0  0  0  0  0  0  0  0
   -5.3622    3.6956    0.5505 S   0  0  0  0  0  0  0  0  0  0  0  0
   -5.0367    4.9194   -4.5470 C   0  0  0  0  0  0  0  0  0  0  0  0
   -5.2909    4.2294   -5.6999 C   0  0  0  0  0  0  0  0  0  0  0  0
   -6.5350    3.0134   -5.4729 S   0  0  0  0  0  0  0  0  0  0  0  0
   -4.3687    4.0895   -6.7842 C   0  0  0  0  0  0  0  0  0  0  0  0
   -3.1942    4.7700   -6.9494 C   0  0  0  0  0  0  0  0  0  0  0  0
   -2.1819    3.9992   -7.5759 C   0  0  0  0  0  0  0  0  0  0  0  0
   -0.7920    4.2316   -7.5469 C   0  0  0  0  0  0  0  0  0  0  0  0
   -0.2194    5.4798   -7.0716 C   0  0  0  0  0  0  0  0  0  0  0  0
   -0.7106    6.2164   -5.5728 S   0  0  0  0  0  0  0  0  0  0  0  0
    0.4405    7.4985   -5.7269 C   0  0  0  0  0  0  0  0  0  0  0  0
    0.5634    8.5679   -4.6963 C   0  0  0  0  0  0  0  0  0  0  0  0
   -0.7417    8.8065   -3.9466 C   0  0  0  0  0  0  0  0  0  0  0  0
    1.1601    7.3474   -6.8748 C   0  0  0  0  0  0  0  0  0  0  0  0
    2.3929    8.4312   -7.3750 Cl  0  0  0  0  0  0  0  0  0  0  0  0
    0.7973    6.2023   -7.6330 C   0  0  0  0  0  0  0  0  0  0  0  0
    1.5243    5.8267   -9.1383 Cl  0  0  0  0  0  0  0  0  0  0  0  0
    0.0312    3.1423   -7.8171 C   0  0  0  0  0  0  0  0  0  0  0  0
   -0.4718    1.8727   -8.1904 C   0  0  0  0  0  0  0  0  0  0  0  0
   -1.8541    1.6647   -8.3123 C   0  0  0  0  0  0  0  0  0  0  0  0
   -2.4292    0.3359   -8.4578 C   0  0  0  0  0  0  0  0  0  0  0  0
   -2.0151   -0.9360   -7.3404 S   0  0  0  0  0  0  0  0  0  0  0  0
   -3.1885   -2.0158   -8.0078 C   0  0  0  0  0  0  0  0  0  0  0  0
   -3.4077   -3.3722   -7.4337 C   0  0  0  0  0  0  0  0  0  0  0  0
   -4.5932   -3.3636   -6.4661 C   0  0  0  0  0  0  0  0  0  0  0  0
   -3.8593   -1.4116   -9.0287 C   0  0  0  0  0  0  0  0  0  0  0  0
   -3.4394   -0.0769   -9.2790 C   0  0  0  0  0  0  0  0  0  0  0  0
   -4.1062    0.8893  -10.5266 Cl  0  0  0  0  0  0  0  0  0  0  0  0
   -5.0946   -2.1759   -9.9399 Cl  0  0  0  0  0  0  0  0  0  0  0  0
   -2.6742    2.7339   -7.9851 C   0  0  0  0  0  0  0  0  0  0  0  0
   -4.3713    2.5651   -7.6514 S   0  0  0  0  0  0  0  0  0  0  0  0
    0.5144    0.8636   -8.1047 C   0  0  0  0  0  0  0  0  0  0  0  0
    1.6937    1.2987   -7.5754 C   0  0  0  0  0  0  0  0  0  0  0  0
    1.7246    3.0434   -7.3954 S   0  0  0  0  0  0  0  0  0  0  0  0
    2.5706    0.4303   -6.8424 C   0  0  0  0  0  0  0  0  0  0  0  0
    2.0443   -0.6187   -6.1447 C   0  0  0  0  0  0  0  0  0  0  0  0
    2.9429   -1.2026   -5.2282 C   0  0  0  0  0  0  0  0  0  0  0  0
    2.6327   -2.1565   -4.2438 C   0  0  0  0  0  0  0  0  0  0  0  0
    1.2541   -2.5871   -4.0658 C   0  0  0  0  0  0  0  0  0  0  0  0
    0.7889   -4.2594   -4.1175 S   0  0  0  0  0  0  0  0  0  0  0  0
   -0.8887   -3.8805   -3.9110 C   0  0  0  0  0  0  0  0  0  0  0  0
   -1.9158   -4.9545   -3.8221 C   0  0  0  0  0  0  0  0  0  0  0  0
   -1.9232   -5.5896   -2.4298 C   0  0  0  0  0  0  0  0  0  0  0  0
   -1.0596   -2.5336   -3.7905 C   0  0  0  0  0  0  0  0  0  0  0  0
   -2.5787   -1.7661   -3.5678 Cl  0  0  0  0  0  0  0  0  0  0  0  0
    0.1516   -1.7979   -3.8815 C   0  0  0  0  0  0  0  0  0  0  0  0
    0.1976   -0.0893   -3.7054 Cl  0  0  0  0  0  0  0  0  0  0  0  0
    3.6790   -2.5861   -3.4445 C   0  0  0  0  0  0  0  0  0  0  0  0
    4.9952   -2.0806   -3.5890 C   0  0  0  0  0  0  0  0  0  0  0  0
    5.2792   -1.0524   -4.5090 C   0  0  0  0  0  0  0  0  0  0  0  0
    6.6085   -0.4672   -4.5553 C   0  0  0  0  0  0  0  0  0  0  0  0
    7.5024   -0.3516   -6.0416 S   0  0  0  0  0  0  0  0  0  0  0  0
    8.8884    0.3129   -5.2483 C   0  0  0  0  0  0  0  0  0  0  0  0
   10.1465    0.6041   -5.9890 C   0  0  0  0  0  0  0  0  0  0  0  0
   11.0973   -0.5948   -5.9352 C   0  0  0  0  0  0  0  0  0  0  0  0
    8.6550    0.4371   -3.9107 C   0  0  0  0  0  0  0  0  0  0  0  0
    7.3630    0.0039   -3.5144 C   0  0  0  0  0  0  0  0  0  0  0  0
    6.8053    0.1484   -1.8956 Cl  0  0  0  0  0  0  0  0  0  0  0  0
    9.8031    1.0496   -2.7945 Cl  0  0  0  0  0  0  0  0  0  0  0  0
    4.2339   -0.6291   -5.3175 C   0  0  0  0  0  0  0  0  0  0  0  0
    4.2579    0.6879   -6.4665 S   0  0  0  0  0  0  0  0  0  0  0  0
    5.8887   -2.6914   -2.6797 C   0  0  0  0  0  0  0  0  0  0  0  0
    5.2860   -3.5606   -1.8169 C   0  0  0  0  0  0  0  0  0  0  0  0
    3.5734   -3.7281   -2.1345 S   0  0  0  0  0  0  0  0  0  0  0  0
    5.9411   -4.2376   -0.7444 C   0  0  0  0  0  0  0  0  0  0  0  0
    7.2061   -3.9700   -0.3112 C   0  0  0  0  0  0  0  0  0  0  0  0
    7.6336   -4.8073    0.7444 C   0  0  0  0  0  0  0  0  0  0  0  0
    8.8780   -4.7903    1.3958 C   0  0  0  0  0  0  0  0  0  0  0  0
    9.9135   -3.8706    0.9541 C   0  0  0  0  0  0  0  0  0  0  0  0
   10.6666   -2.7457    2.0443 S   0  0  0  0  0  0  0  0  0  0  0  0
   11.5969   -2.0211    0.7784 C   0  0  0  0  0  0  0  0  0  0  0  0
   12.4766   -0.8474    1.0335 C   0  0  0  0  0  0  0  0  0  0  0  0
   11.7147    0.4609    0.8050 C   0  0  0  0  0  0  0  0  0  0  0  0
   11.3325   -2.6292   -0.4129 C   0  0  0  0  0  0  0  0  0  0  0  0
   12.0565   -2.1744   -1.8996 Cl  0  0  0  0  0  0  0  0  0  0  0  0
   10.3848   -3.6815   -0.3168 C   0  0  0  0  0  0  0  0  0  0  0  0
    9.9501   -4.6538   -1.6653 Cl  0  0  0  0  0  0  0  0  0  0  0  0
    9.0457   -5.6818    2.4460 C   0  0  0  0  0  0  0  0  0  0  0  0
    8.0348   -6.5854    2.8545 C   0  0  0  0  0  0  0  0  0  0  0  0
    6.7828   -6.5844    2.2154 C   0  0  0  0  0  0  0  0  0  0  0  0
    5.7044   -7.4483    2.6652 C   0  0  0  0  0  0  0  0  0  0  0  0
    4.8225   -8.4590    1.5592 S   0  0  0  0  0  0  0  0  0  0  0  0
    3.8084   -9.0816    2.8154 C   0  0  0  0  0  0  0  0  0  0  0  0
    2.7751  -10.1153    2.5334 C   0  0  0  0  0  0  0  0  0  0  0  0
    3.3795  -11.5209    2.5716 C   0  0  0  0  0  0  0  0  0  0  0  0
    4.1477   -8.5334    4.0165 C   0  0  0  0  0  0  0  0  0  0  0  0
    5.2146   -7.5989    3.9338 C   0  0  0  0  0  0  0  0  0  0  0  0
    5.7547   -6.6942    5.2907 Cl  0  0  0  0  0  0  0  0  0  0  0  0
    3.3681   -8.9190    5.4977 Cl  0  0  0  0  0  0  0  0  0  0  0  0
    6.6208   -5.7087    1.1488 C   0  0  0  0  0  0  0  0  0  0  0  0
    5.1839   -5.5169    0.1800 S   0  0  0  0  0  0  0  0  0  0  0  0
    8.4970   -7.4466    3.8928 C   0  0  0  0  0  0  0  0  0  0  0  0
    9.7686   -7.1899    4.2606 C   0  0  0  0  0  0  0  0  0  0  0  0
   10.5017   -5.8974    3.3749 S   0  0  0  0  0  0  0  0  0  0  0  0
   -0.3284   -2.6647   12.7593 H   0  0  0  0  0  0  0  0  0  0  0  0
   -1.7545   -0.5892   12.1098 H   0  0  0  0  0  0  0  0  0  0  0  0
   -3.7796    4.5289   12.5949 H   0  0  0  0  0  0  0  0  0  0  0  0
   -2.1037    4.0227   12.8844 H   0  0  0  0  0  0  0  0  0  0  0  0
   -2.1740    6.2917   11.8795 H   0  0  0  0  0  0  0  0  0  0  0  0
   -3.0718    5.6648   10.4930 H   0  0  0  0  0  0  0  0  0  0  0  0
   -1.4045    5.1518   10.7693 H   0  0  0  0  0  0  0  0  0  0  0  0
    2.9813   -4.5174    4.7291 H   0  0  0  0  0  0  0  0  0  0  0  0
    2.8623   -6.1608    5.3805 H   0  0  0  0  0  0  0  0  0  0  0  0
    2.4854   -6.1293    2.9186 H   0  0  0  0  0  0  0  0  0  0  0  0
    1.0452   -6.6848    3.7774 H   0  0  0  0  0  0  0  0  0  0  0  0
    1.1132   -5.0389    3.1379 H   0  0  0  0  0  0  0  0  0  0  0  0
   -1.6506   -2.2179    5.1418 H   0  0  0  0  0  0  0  0  0  0  0  0
   -0.9691   -0.1073    3.5210 H   0  0  0  0  0  0  0  0  0  0  0  0
   -1.3085    0.6018    1.2205 H   0  0  0  0  0  0  0  0  0  0  0  0
   -1.7856    1.9444   -0.5278 H   0  0  0  0  0  0  0  0  0  0  0  0
   -2.2506    0.2434   -0.8230 H   0  0  0  0  0  0  0  0  0  0  0  0
   -4.0634    1.0656   -2.3670 H   0  0  0  0  0  0  0  0  0  0  0  0
   -2.4387    1.5077   -2.9120 H   0  0  0  0  0  0  0  0  0  0  0  0
   -3.4767    2.7161   -2.1456 H   0  0  0  0  0  0  0  0  0  0  0  0
   -6.8586   -0.4986    6.7654 H   0  0  0  0  0  0  0  0  0  0  0  0
   -7.0328   -1.8055    5.5602 H   0  0  0  0  0  0  0  0  0  0  0  0
   -5.0422   -1.7996    7.8875 H   0  0  0  0  0  0  0  0  0  0  0  0
   -5.2170   -3.0842    6.6935 H   0  0  0  0  0  0  0  0  0  0  0  0
   -6.5409   -2.7373    7.8199 H   0  0  0  0  0  0  0  0  0  0  0  0
   -7.6087    0.1662    4.5791 H   0  0  0  0  0  0  0  0  0  0  0  0
   -7.8719    1.4479    2.5169 H   0  0  0  0  0  0  0  0  0  0  0  0
   -7.1964    0.7321   -0.4466 H   0  0  0  0  0  0  0  0  0  0  0  0
  -11.1083   -1.3899   -2.5576 H   0  0  0  0  0  0  0  0  0  0  0  0
  -10.2851   -2.5790   -3.5861 H   0  0  0  0  0  0  0  0  0  0  0  0
  -12.3712   -1.7590   -4.6665 H   0  0  0  0  0  0  0  0  0  0  0  0
  -11.7695   -0.0990   -4.5903 H   0  0  0  0  0  0  0  0  0  0  0  0
  -10.9542   -1.2881   -5.6105 H   0  0  0  0  0  0  0  0  0  0  0  0
   -0.8293    7.3272   -0.1896 H   0  0  0  0  0  0  0  0  0  0  0  0
   -1.4340    8.9384   -0.6228 H   0  0  0  0  0  0  0  0  0  0  0  0
   -2.9009    8.9241    1.3931 H   0  0  0  0  0  0  0  0  0  0  0  0
   -2.3151    7.3124    1.8156 H   0  0  0  0  0  0  0  0  0  0  0  0
   -1.2099    8.6919    1.8476 H   0  0  0  0  0  0  0  0  0  0  0  0
   -4.2884    5.6876   -4.4812 H   0  0  0  0  0  0  0  0  0  0  0  0
   -3.0260    5.7433   -6.5298 H   0  0  0  0  0  0  0  0  0  0  0  0
    0.8902    9.4847   -5.1928 H   0  0  0  0  0  0  0  0  0  0  0  0
    1.3453    8.2863   -3.9832 H   0  0  0  0  0  0  0  0  0  0  0  0
   -0.6173    9.6064   -3.2221 H   0  0  0  0  0  0  0  0  0  0  0  0
   -1.5328    9.0874   -4.6372 H   0  0  0  0  0  0  0  0  0  0  0  0
   -1.0492    7.9055   -3.4196 H   0  0  0  0  0  0  0  0  0  0  0  0
   -3.6093   -4.0725   -8.2474 H   0  0  0  0  0  0  0  0  0  0  0  0
   -2.5057   -3.6917   -6.9085 H   0  0  0  0  0  0  0  0  0  0  0  0
   -5.4956   -3.0460   -6.9814 H   0  0  0  0  0  0  0  0  0  0  0  0
   -4.4065   -2.6778   -5.6437 H   0  0  0  0  0  0  0  0  0  0  0  0
   -4.7562   -4.3601   -6.0634 H   0  0  0  0  0  0  0  0  0  0  0  0
    0.3307   -0.1664   -8.3457 H   0  0  0  0  0  0  0  0  0  0  0  0
    1.0192   -0.9233   -6.2422 H   0  0  0  0  0  0  0  0  0  0  0  0
   -1.7052   -5.7231   -4.5682 H   0  0  0  0  0  0  0  0  0  0  0  0
   -2.8935   -4.5182   -4.0319 H   0  0  0  0  0  0  0  0  0  0  0  0
   -2.6742   -6.3734   -2.3813 H   0  0  0  0  0  0  0  0  0  0  0  0
   -2.1518   -4.8410   -1.6756 H   0  0  0  0  0  0  0  0  0  0  0  0
   -0.9505   -6.0219   -2.2071 H   0  0  0  0  0  0  0  0  0  0  0  0
   10.6308    1.4716   -5.5355 H   0  0  0  0  0  0  0  0  0  0  0  0
    9.9094    0.8379   -7.0278 H   0  0  0  0  0  0  0  0  0  0  0  0
   10.6334   -1.4658   -6.3919 H   0  0  0  0  0  0  0  0  0  0  0  0
   12.0153   -0.3670   -6.4699 H   0  0  0  0  0  0  0  0  0  0  0  0
   11.3453   -0.8339   -4.9042 H   0  0  0  0  0  0  0  0  0  0  0  0
    6.9453   -2.5052   -2.6789 H   0  0  0  0  0  0  0  0  0  0  0  0
    7.8074   -3.1784   -0.7144 H   0  0  0  0  0  0  0  0  0  0  0  0
   13.3316   -0.8926    0.3556 H   0  0  0  0  0  0  0  0  0  0  0  0
   12.8409   -0.8844    2.0611 H   0  0  0  0  0  0  0  0  0  0  0  0
   10.8615    0.5238    1.4761 H   0  0  0  0  0  0  0  0  0  0  0  0
   12.3675    1.3099    0.9888 H   0  0  0  0  0  0  0  0  0  0  0  0
   11.3551    0.5141   -0.2193 H   0  0  0  0  0  0  0  0  0  0  0  0
    1.9874  -10.0355    3.2848 H   0  0  0  0  0  0  0  0  0  0  0  0
    2.3409   -9.9328    1.5491 H   0  0  0  0  0  0  0  0  0  0  0  0
    3.8019  -11.7232    3.5526 H   0  0  0  0  0  0  0  0  0  0  0  0
    2.6133  -12.2625    2.3630 H   0  0  0  0  0  0  0  0  0  0  0  0
    4.1672  -11.6131    1.8276 H   0  0  0  0  0  0  0  0  0  0  0  0
    7.9019   -8.2313    4.3214 H   0  0  0  0  0  0  0  0  0  0  0  0
   10.3493   -7.6888    5.0116 H   0  0  0  0  0  0  0  0  0  0  0  0
  1  2  2  0  0  0  0
  2  3  1  0  0  0  0
  3  4  2  0  0  0  0
  4  5  1  0  0  0  0
  5  6  1  0  0  0  0
  6  7  1  0  0  0  0
  7  8  1  0  0  0  0
  8  9  1  0  0  0  0
  7 10  2  0  0  0  0
 10 11  1  0  0  0  0
 10 12  1  0  0  0  0
 12 13  1  0  0  0  0
  4 14  1  0  0  0  0
 14 15  2  0  0  0  0
 15 16  1  0  0  0  0
 16 17  1  0  0  0  0
 17 18  1  0  0  0  0
 18 19  1  0  0  0  0
 19 20  1  0  0  0  0
 20 21  1  0  0  0  0
 19 22  2  0  0  0  0
 22 23  1  0  0  0  0
 23 24  1  0  0  0  0
 22 25  1  0  0  0  0
 16 26  2  0  0  0  0
 26 27  1  0  0  0  0
 15 28  1  0  0  0  0
 28 29  2  0  0  0  0
 29 30  1  0  0  0  0
 29 31  1  0  0  0  0
 31 32  2  0  0  0  0
 32 33  1  0  0  0  0
 33 34  2  0  0  0  0
 34 35  1  0  0  0  0
 35 36  1  0  0  0  0
 36 37  1  0  0  0  0
 34 38  1  0  0  0  0
 38 39  2  0  0  0  0
 39 40  1  0  0  0  0
 40 41  1  0  0  0  0
 41 42  1  0  0  0  0
 42 43  1  0  0  0  0
 40 44  2  0  0  0  0
 44 45  1  0  0  0  0
 45 46  2  0  0  0  0
 46 47  1  0  0  0  0
 47 48  2  0  0  0  0
 48 49  1  0  0  0  0
 49 50  2  0  0  0  0
 50 51  1  0  0  0  0
 51 52  1  0  0  0  0
 52 53  1  0  0  0  0
 53 54  1  0  0  0  0
 54 55  1  0  0  0  0
 53 56  2  0  0  0  0
 56 57  1  0  0  0  0
 56 58  1  0  0  0  0
 58 59  1  0  0  0  0
 50 60  1  0  0  0  0
 60 61  2  0  0  0  0
 61 62  1  0  0  0  0
 62 63  1  0  0  0  0
 63 64  1  0  0  0  0
 64 65  1  0  0  0  0
 65 66  1  0  0  0  0
 66 67  1  0  0  0  0
 65 68  2  0  0  0  0
 68 69  1  0  0  0  0
 69 70  1  0  0  0  0
 68 71  1  0  0  0  0
 62 72  2  0  0  0  0
 72 73  1  0  0  0  0
 61 74  1  0  0  0  0
 74 75  2  0  0  0  0
 75 76  1  0  0  0  0
 75 77  1  0  0  0  0
 77 78  2  0  0  0  0
 78 79  1  0  0  0  0
 79 80  2  0  0  0  0
 80 81  1  0  0  0  0
 81 82  1  0  0  0  0
 82 83  1  0  0  0  0
 83 84  1  0  0  0  0
 84 85  1  0  0  0  0
 83 86  2  0  0  0  0
 86 87  1  0  0  0  0
 86 88  1  0  0  0  0
 88 89  1  0  0  0  0
 80 90  1  0  0  0  0
 90 91  2  0  0  0  0
 91 92  1  0  0  0  0
 92 93  1  0  0  0  0
 93 94  1  0  0  0  0
 94 95  1  0  0  0  0
 95 96  1  0  0  0  0
 96 97  1  0  0  0  0
 95 98  2  0  0  0  0
 98 99  1  0  0  0  0
 99100  1  0  0  0  0
 98101  1  0  0  0  0
 92102  2  0  0  0  0
102103  1  0  0  0  0
 91104  1  0  0  0  0
104105  2  0  0  0  0
105106  1  0  0  0  0
105107  1  0  0  0  0
107108  2  0  0  0  0
108109  1  0  0  0  0
109110  2  0  0  0  0
110111  1  0  0  0  0
111112  1  0  0  0  0
112113  1  0  0  0  0
113114  1  0  0  0  0
114115  1  0  0  0  0
113116  2  0  0  0  0
116117  1  0  0  0  0
116118  1  0  0  0  0
118119  1  0  0  0  0
110120  1  0  0  0  0
120121  2  0  0  0  0
121122  1  0  0  0  0
122123  1  0  0  0  0
123124  1  0  0  0  0
124125  1  0  0  0  0
125126  1  0  0  0  0
126127  1  0  0  0  0
125128  2  0  0  0  0
128129  1  0  0  0  0
129130  1  0  0  0  0
128131  1  0  0  0  0
122132  2  0  0  0  0
132133  1  0  0  0  0
121134  1  0  0  0  0
134135  2  0  0  0  0
135136  1  0  0  0  0
135137  1  0  0  0  0
137138  2  0  0  0  0
138139  1  0  0  0  0
139140  2  0  0  0  0
140141  1  0  0  0  0
141142  1  0  0  0  0
142143  1  0  0  0  0
143144  1  0  0  0  0
144145  1  0  0  0  0
143146  2  0  0  0  0
146147  1  0  0  0  0
146148  1  0  0  0  0
148149  1  0  0  0  0
140150  1  0  0  0  0
150151  2  0  0  0  0
151152  1  0  0  0  0
152153  1  0  0  0  0
153154  1  0  0  0  0
154155  1  0  0  0  0
155156  1  0  0  0  0
156157  1  0  0  0  0
155158  2  0  0  0  0
158159  1  0  0  0  0
159160  1  0  0  0  0
158161  1  0  0  0  0
152162  2  0  0  0  0
162163  1  0  0  0  0
151164  1  0  0  0  0
164165  2  0  0  0  0
165166  1  0  0  0  0
 27  1  1  0  0  0  0
 39 31  1  0  0  0  0
 73 47  1  0  0  0  0
103 77  1  0  0  0  0
133107  1  0  0  0  0
163137  1  0  0  0  0
 26  3  1  0  0  0  0
 46 38  1  0  0  0  0
 72 49  1  0  0  0  0
102 79  1  0  0  0  0
132109  1  0  0  0  0
162139  1  0  0  0  0
 12  5  2  0  0  0  0
 30 14  1  0  0  0  0
 58 51  2  0  0  0  0
 76 60  1  0  0  0  0
 88 81  2  0  0  0  0
106 90  1  0  0  0  0
118111  2  0  0  0  0
136120  1  0  0  0  0
148141  2  0  0  0  0
166150  1  0  0  0  0
 23 17  2  0  0  0  0
 69 63  2  0  0  0  0
 99 93  2  0  0  0  0
129123  2  0  0  0  0
159153  2  0  0  0  0
  1167  1  0  0  0  0
  2168  1  0  0  0  0
  8169  1  0  0  0  0
  8170  1  0  0  0  0
  9171  1  0  0  0  0
  9172  1  0  0  0  0
  9173  1  0  0  0  0
 20174  1  0  0  0  0
 20175  1  0  0  0  0
 21176  1  0  0  0  0
 21177  1  0  0  0  0
 21178  1  0  0  0  0
 28179  1  0  0  0  0
 32180  1  0  0  0  0
 33181  1  0  0  0  0
 36182  1  0  0  0  0
 36183  1  0  0  0  0
 37184  1  0  0  0  0
 37185  1  0  0  0  0
 37186  1  0  0  0  0
 42187  1  0  0  0  0
 42188  1  0  0  0  0
 43189  1  0  0  0  0
 43190  1  0  0  0  0
 43191  1  0  0  0  0
 44192  1  0  0  0  0
 45193  1  0  0  0  0
 48194  1  0  0  0  0
 54195  1  0  0  0  0
 54196  1  0  0  0  0
 55197  1  0  0  0  0
 55198  1  0  0  0  0
 55199  1  0  0  0  0
 66200  1  0  0  0  0
 66201  1  0  0  0  0
 67202  1  0  0  0  0
 67203  1  0  0  0  0
 67204  1  0  0  0  0
 74205  1  0  0  0  0
 78206  1  0  0  0  0
 84207  1  0  0  0  0
 84208  1  0  0  0  0
 85209  1  0  0  0  0
 85210  1  0  0  0  0
 85211  1  0  0  0  0
 96212  1  0  0  0  0
 96213  1  0  0  0  0
 97214  1  0  0  0  0
 97215  1  0  0  0  0
 97216  1  0  0  0  0
104217  1  0  0  0  0
108218  1  0  0  0  0
114219  1  0  0  0  0
114220  1  0  0  0  0
115221  1  0  0  0  0
115222  1  0  0  0  0
115223  1  0  0  0  0
126224  1  0  0  0  0
126225  1  0  0  0  0
127226  1  0  0  0  0
127227  1  0  0  0  0
127228  1  0  0  0  0
134229  1  0  0  0  0
138230  1  0  0  0  0
144231  1  0  0  0  0
144232  1  0  0  0  0
145233  1  0  0  0  0
145234  1  0  0  0  0
145235  1  0  0  0  0
156236  1  0  0  0  0
156237  1  0  0  0  0
157238  1  0  0  0  0
157239  1  0  0  0  0
157240  1  0  0  0  0
164241  1  0  0  0  0
165242  1  0  0  0  0
M  END
