240

C         -5.90060       -2.28820        6.24030
C         -4.76910       -1.59800        5.99330
C         -4.31990       -1.72320        4.64410
C         -3.18510       -1.14270        4.04810
C         -2.43810       -0.09310        4.74450
C         -1.04940       -0.02500        4.70460
C         -0.37890        0.99410        5.34840
C         -1.06170        1.97000        6.05570
S         -0.13810        3.25510        6.87240
C         -0.39920        2.72730        8.60550
C          0.31760        1.42340        8.89770
C         -2.44900        1.90830        6.07890
F         -3.15600        2.84050        6.74800
C         -3.13520        0.90110        5.43250
C         -2.88530       -1.54870        2.75320
C         -3.77640       -2.34650        1.98690
C         -4.95670       -2.85390        2.55560
C         -5.91120       -3.64090        1.76660
C         -6.37880       -4.86650        2.23250
C         -7.26530       -5.62600        1.49340
C         -7.72360       -5.18000        0.25940
S         -8.84190       -6.04320       -0.78960
C         -9.29990       -7.51640        0.19680
C        -10.33550       -8.31370       -0.57350
C         -7.25330       -3.94520       -0.19300
C         -6.36760       -3.18110        0.53090
F         -7.68400       -3.48360       -1.38550
C         -5.16380       -2.57690        3.89870
S         -6.50700       -3.13760        4.86070
C         -3.32080       -2.52150        0.65990
C         -2.13190       -1.90210        0.39160
S         -1.47010       -1.11280        1.81270
C         -1.51300       -1.83280       -0.87950
S         -2.42080       -2.30400       -2.29020
C         -1.11480       -1.94740       -3.38210
C         -0.02060       -1.46030       -2.66150
C         -0.23710       -1.41980       -1.24920
N          0.76690       -1.11960       -0.38920
C          1.92700       -0.85260       -0.92490
N          2.98890       -0.61790       -0.09450
C          2.11130       -0.76240       -2.36340
N          3.33890       -0.42510       -2.86870
N          1.15880       -1.07310       -3.20090
C         -1.19910       -2.21450       -4.76480
C         -2.25520       -2.85720       -5.33370
C         -2.40750       -3.20020       -6.68850
S         -1.27960       -2.80050       -7.94430
C         -2.26340       -3.48940       -9.20800
C         -3.39720       -4.07210       -8.64910
C         -3.49530       -3.88530       -7.23840
N         -4.57350       -4.30540       -6.54050
C         -5.51020       -4.91090       -7.21970
N         -6.60680       -5.37380       -6.54130
C         -5.37690       -5.17030       -8.64350
N         -6.37790       -5.83100       -9.30530
N         -4.35480       -4.74550       -9.33540
C         -1.93640       -3.44590      -10.60090
C         -1.18100       -2.51010      -11.20670
C         -0.71840       -1.35180      -10.46410
C          0.53420       -1.00470      -10.07870
C          0.55630       -0.03450       -9.03570
C          1.64490        0.37800       -8.25390
C          3.02770       -0.04370       -8.51820
C          4.03820        0.90570       -8.63250
C          5.35230        0.53080       -8.83290
C          5.70390       -0.81170       -8.90750
S          7.34070       -1.41940       -9.15400
C          8.40580       -0.01100       -8.68560
C          8.32950        0.30180       -7.20340
C          4.67830       -1.75250       -8.79930
F          4.98300       -3.06440       -8.87190
C          3.36280       -1.39240       -8.60800
C          1.35400        1.14510       -7.13610
C          0.03770        1.49140       -6.74960
C         -1.04620        1.12360       -7.55710
C         -2.43900        1.33590       -7.14390
C         -2.88480        0.86690       -5.90910
C         -4.20430        1.01550       -5.53930
C         -5.12590        1.63190       -6.38310
S         -6.80360        1.73690       -5.82730
C         -7.30620        3.43350       -6.30200
C         -6.40310        4.48350       -5.68630
C         -4.67250        2.06580       -7.62460
C         -3.35220        1.93220       -8.00500
F         -5.51920        2.63740       -8.50940
C         -0.75120        0.39400       -8.69600
S         -1.94790       -0.32930       -9.73010
C          0.00050        2.10840       -5.47580
C          1.22220        2.21010       -4.88520
S          2.51310        1.61940       -5.91910
C          1.48380        2.51840       -3.51960
C          2.68500        2.60810       -2.88460
C          2.57980        2.57620       -1.46960
C          3.63720        2.52040       -0.54460
C          5.02390        2.70700       -0.98530
C          6.02580        1.80480       -0.63780
C          7.32590        1.97380       -1.07230
C          7.67710        3.05990       -1.86540
S          9.28860        3.37770       -2.50160
C         10.38780        2.38000       -1.43790
C         10.43520        2.89760       -0.01320
C          6.66190        3.95370       -2.21360
F          6.96190        5.01380       -2.98950
C          5.36150        3.79290       -1.79310
C          3.28980        2.20490        0.75990
C          1.94820        2.01740        1.17060
C          0.87760        2.22390        0.28170
C         -0.50870        2.16420        0.75210
C         -0.86540        2.73930        1.97600
C         -2.15320        2.65200        2.44980
C         -3.15990        2.00130        1.73140
S         -4.74270        1.95260        2.50040
C         -5.69880        0.66020        1.61360
C         -6.90140        0.28420        2.45660
C         -2.80790        1.48980        0.48730
C         -1.51400        1.55570        0.00950
F         -3.71820        0.88320       -0.31070
C          1.23440        2.44850       -1.04060
S          0.14050        2.50020       -2.39720
C          1.87400        1.50300        2.48840
C          3.08540        1.36100        3.09270
S          4.40190        1.89870        2.07320
C          3.26020        0.75390        4.38240
C          2.50580       -0.29470        4.80990
C          2.69720       -0.62270        6.17680
C          1.96530       -1.54440        6.94120
C          0.93830       -2.37750        6.30440
C         -0.36730       -2.44880        6.78840
C         -1.32520       -3.17600        6.11710
C         -1.03530       -3.87630        4.94200
S         -2.38460       -4.74760        4.21810
C         -1.79380       -5.33520        2.58200
C         -2.94280       -6.00240        1.85320
C          0.28220       -3.82770        4.49510
F          0.69270       -4.50240        3.39530
C          1.24750       -3.09230        5.15270
C          2.25540       -1.58640        8.29660
C          3.24620       -0.77330        8.89960
C          3.96570        0.15670        8.13350
C          4.95000        1.06270        8.73690
C          4.63080        1.82870        9.85710
C          5.54990        2.70510       10.39210
C          6.82490        2.84280        9.84630
S          7.93460        3.96190       10.64900
C          8.80820        4.78620        9.26680
C          7.84760        5.47010        8.31510
C          7.13820        2.05170        8.74530
C          6.21870        1.19080        8.18190
F          8.36860        2.09460        8.18880
C          3.66960        0.20990        6.77850
S          4.33110        1.35230        5.63010
C          3.38380       -1.06350       10.29040
C          2.53580       -2.02190       10.71350
S          1.51070       -2.64490        9.46530
H         -6.43470       -2.36900        7.16680
H         -4.24160       -1.04030        6.74560
H         -0.49630       -0.79250        4.18800
H          0.69630        1.04690        5.32860
H         -1.47250        2.65210        8.77470
H          0.00150        3.54340        9.20510
H          0.18210        1.14580        9.94150
H          1.38230        1.52450        8.69680
H         -0.07140        0.62180        8.27100
H         -4.21330        0.92420        5.43790
H         -6.02350       -5.24750        3.17750
H         -7.59120       -6.57410        1.88770
H         -8.39850       -8.10710        0.36190
H         -9.70390       -7.16970        1.14800
H         -9.93330       -8.63470       -1.53160
H        -11.22120       -7.71000       -0.75700
H        -10.62420       -9.19390       -0.00300
H         -6.05590       -2.22670        0.13610
H         -3.84760       -3.08910       -0.08560
H          3.89680       -0.88250       -0.44100
H          2.80820       -0.84890        0.87110
H          3.33370       -0.26490       -3.86640
H          3.88380        0.23680       -2.33830
H         -0.34690       -1.91200       -5.35960
H         -3.08620       -3.16350       -4.70930
H         -6.65570       -5.04300       -5.58800
H         -7.48520       -5.36150       -7.03490
H         -6.87340       -6.54210       -8.79220
H         -6.14590       -6.06980      -10.25780
H         -2.37350       -4.24670      -11.18230
H         -0.92920       -2.59580      -12.25360
H          1.41570       -1.49420      -10.45090
H          3.79140        1.95530       -8.57840
H          6.10230        1.29800       -8.93510
H          8.14840        0.84640       -9.30590
H          9.40490       -0.34870       -8.96060
H          9.00650        1.11890       -6.96190
H          8.61470       -0.57150       -6.62130
H          7.32060        0.59120       -6.91610
H          2.61450       -2.16130       -8.49540
H         -2.19630        0.36200       -5.24860
H         -4.54740        0.64930       -4.58420
H         -7.33500        3.50550       -7.38690
H         -8.32170        3.51150       -5.91380
H         -6.36680        4.36910       -4.60490
H         -6.78100        5.47640       -5.92150
H         -5.39010        4.40000       -6.07610
H         -3.04970        2.29350       -8.97570
H         -0.90560        2.43470       -4.99720
H          3.61970        2.63110       -3.41730
H          5.78530        0.94600       -0.03020
H          8.06550        1.24110       -0.79340
H         11.36070        2.47820       -1.91940
H         10.07880        1.33690       -1.49350
H         11.13070        2.30060        0.57340
H         10.76910        3.93240       -0.00120
H          9.45430        2.84810        0.45510
H          4.62220        4.52620       -2.07490
H         -0.12820        3.27380        2.55490
H         -2.41090        3.09160        3.40060
H         -6.00320        1.05930        0.64730
H         -5.03950       -0.19370        1.47540
H         -6.58470       -0.08930        3.42770
H         -7.47220       -0.49450        1.95510
H         -7.54590        1.14650        2.61110
H         -1.30980        1.08400       -0.93740
H          0.94770        1.21970        2.95160
H          1.81130       -0.80140        4.16610
H         -0.63820       -1.91090        7.68360
H         -2.33760       -3.21370        6.48840
H         -1.42950       -4.47000        2.03040
H         -0.98300       -6.04160        2.74910
H         -2.59390       -6.37060        0.89090
H         -3.32600       -6.84130        2.43010
H         -3.75380       -5.29970        1.68280
H          2.25420       -3.10790        4.76360
H          3.64380        1.75920       10.28870
H          5.29490        3.30860       11.24920
H          9.43740        4.05800        8.75970
H          9.44360        5.51230        9.77410
H          7.21370        4.74250        7.81140
H          8.40860        6.01650        7.55960
H          7.21070        6.16980        8.85220
H          6.51660        0.60070        7.32920
H          4.10370       -0.58080       10.92590
H          2.43620       -2.42290       11.70320
