
  xtb     03052205043D
 energy: -420.706397034250 gnorm: 0.000366386489 xtb: 6.4.1 (unknown)
240263  0     0  0            999 V2000
   -5.9006   -2.2882    6.2403 C   0  0  0  0  0  0  0  0  0  0  0  0
   -4.7691   -1.5980    5.9933 C   0  0  0  0  0  0  0  0  0  0  0  0
   -4.3199   -1.7232    4.6441 C   0  0  0  0  0  0  0  0  0  0  0  0
   -3.1851   -1.1427    4.0481 C   0  0  0  0  0  0  0  0  0  0  0  0
   -2.4381   -0.0931    4.7445 C   0  0  0  0  0  0  0  0  0  0  0  0
   -1.0494   -0.0250    4.7046 C   0  0  0  0  0  0  0  0  0  0  0  0
   -0.3789    0.9941    5.3484 C   0  0  0  0  0  0  0  0  0  0  0  0
   -1.0617    1.9700    6.0557 C   0  0  0  0  0  0  0  0  0  0  0  0
   -0.1381    3.2551    6.8724 S   0  0  0  0  0  0  0  0  0  0  0  0
   -0.3992    2.7273    8.6055 C   0  0  0  0  0  0  0  0  0  0  0  0
    0.3176    1.4234    8.8977 C   0  0  0  0  0  0  0  0  0  0  0  0
   -2.4490    1.9083    6.0789 C   0  0  0  0  0  0  0  0  0  0  0  0
   -3.1560    2.8405    6.7480 F   0  0  0  0  0  0  0  0  0  0  0  0
   -3.1352    0.9011    5.4325 C   0  0  0  0  0  0  0  0  0  0  0  0
   -2.8853   -1.5487    2.7532 C   0  0  0  0  0  0  0  0  0  0  0  0
   -3.7764   -2.3465    1.9869 C   0  0  0  0  0  0  0  0  0  0  0  0
   -4.9567   -2.8539    2.5556 C   0  0  0  0  0  0  0  0  0  0  0  0
   -5.9112   -3.6409    1.7666 C   0  0  0  0  0  0  0  0  0  0  0  0
   -6.3788   -4.8665    2.2325 C   0  0  0  0  0  0  0  0  0  0  0  0
   -7.2653   -5.6260    1.4934 C   0  0  0  0  0  0  0  0  0  0  0  0
   -7.7236   -5.1800    0.2594 C   0  0  0  0  0  0  0  0  0  0  0  0
   -8.8419   -6.0432   -0.7896 S   0  0  0  0  0  0  0  0  0  0  0  0
   -9.2999   -7.5164    0.1968 C   0  0  0  0  0  0  0  0  0  0  0  0
  -10.3355   -8.3137   -0.5735 C   0  0  0  0  0  0  0  0  0  0  0  0
   -7.2533   -3.9452   -0.1930 C   0  0  0  0  0  0  0  0  0  0  0  0
   -6.3676   -3.1811    0.5309 C   0  0  0  0  0  0  0  0  0  0  0  0
   -7.6840   -3.4836   -1.3855 F   0  0  0  0  0  0  0  0  0  0  0  0
   -5.1638   -2.5769    3.8987 C   0  0  0  0  0  0  0  0  0  0  0  0
   -6.5070   -3.1376    4.8607 S   0  0  0  0  0  0  0  0  0  0  0  0
   -3.3208   -2.5215    0.6599 C   0  0  0  0  0  0  0  0  0  0  0  0
   -2.1319   -1.9021    0.3916 C   0  0  0  0  0  0  0  0  0  0  0  0
   -1.4701   -1.1128    1.8127 S   0  0  0  0  0  0  0  0  0  0  0  0
   -1.5130   -1.8328   -0.8795 C   0  0  0  0  0  0  0  0  0  0  0  0
   -2.4208   -2.3040   -2.2902 S   0  0  0  0  0  0  0  0  0  0  0  0
   -1.1148   -1.9474   -3.3821 C   0  0  0  0  0  0  0  0  0  0  0  0
   -0.0206   -1.4603   -2.6615 C   0  0  0  0  0  0  0  0  0  0  0  0
   -0.2371   -1.4198   -1.2492 C   0  0  0  0  0  0  0  0  0  0  0  0
    0.7669   -1.1196   -0.3892 N   0  0  0  0  0  0  0  0  0  0  0  0
    1.9270   -0.8526   -0.9249 C   0  0  0  0  0  0  0  0  0  0  0  0
    2.9889   -0.6179   -0.0945 N   0  0  0  0  0  0  0  0  0  0  0  0
    2.1113   -0.7624   -2.3634 C   0  0  0  0  0  0  0  0  0  0  0  0
    3.3389   -0.4251   -2.8687 N   0  0  0  0  0  0  0  0  0  0  0  0
    1.1588   -1.0731   -3.2009 N   0  0  0  0  0  0  0  0  0  0  0  0
   -1.1991   -2.2145   -4.7648 C   0  0  0  0  0  0  0  0  0  0  0  0
   -2.2552   -2.8572   -5.3337 C   0  0  0  0  0  0  0  0  0  0  0  0
   -2.4075   -3.2002   -6.6885 C   0  0  0  0  0  0  0  0  0  0  0  0
   -1.2796   -2.8005   -7.9443 S   0  0  0  0  0  0  0  0  0  0  0  0
   -2.2634   -3.4894   -9.2080 C   0  0  0  0  0  0  0  0  0  0  0  0
   -3.3972   -4.0721   -8.6491 C   0  0  0  0  0  0  0  0  0  0  0  0
   -3.4953   -3.8853   -7.2384 C   0  0  0  0  0  0  0  0  0  0  0  0
   -4.5735   -4.3054   -6.5405 N   0  0  0  0  0  0  0  0  0  0  0  0
   -5.5102   -4.9109   -7.2197 C   0  0  0  0  0  0  0  0  0  0  0  0
   -6.6068   -5.3738   -6.5413 N   0  0  0  0  0  0  0  0  0  0  0  0
   -5.3769   -5.1703   -8.6435 C   0  0  0  0  0  0  0  0  0  0  0  0
   -6.3779   -5.8310   -9.3053 N   0  0  0  0  0  0  0  0  0  0  0  0
   -4.3548   -4.7455   -9.3354 N   0  0  0  0  0  0  0  0  0  0  0  0
   -1.9364   -3.4459  -10.6009 C   0  0  0  0  0  0  0  0  0  0  0  0
   -1.1810   -2.5101  -11.2067 C   0  0  0  0  0  0  0  0  0  0  0  0
   -0.7184   -1.3518  -10.4641 C   0  0  0  0  0  0  0  0  0  0  0  0
    0.5342   -1.0047  -10.0787 C   0  0  0  0  0  0  0  0  0  0  0  0
    0.5563   -0.0345   -9.0357 C   0  0  0  0  0  0  0  0  0  0  0  0
    1.6449    0.3780   -8.2539 C   0  0  0  0  0  0  0  0  0  0  0  0
    3.0277   -0.0437   -8.5182 C   0  0  0  0  0  0  0  0  0  0  0  0
    4.0382    0.9057   -8.6325 C   0  0  0  0  0  0  0  0  0  0  0  0
    5.3523    0.5308   -8.8329 C   0  0  0  0  0  0  0  0  0  0  0  0
    5.7039   -0.8117   -8.9075 C   0  0  0  0  0  0  0  0  0  0  0  0
    7.3407   -1.4194   -9.1540 S   0  0  0  0  0  0  0  0  0  0  0  0
    8.4058   -0.0110   -8.6856 C   0  0  0  0  0  0  0  0  0  0  0  0
    8.3295    0.3018   -7.2034 C   0  0  0  0  0  0  0  0  0  0  0  0
    4.6783   -1.7525   -8.7993 C   0  0  0  0  0  0  0  0  0  0  0  0
    4.9830   -3.0644   -8.8719 F   0  0  0  0  0  0  0  0  0  0  0  0
    3.3628   -1.3924   -8.6080 C   0  0  0  0  0  0  0  0  0  0  0  0
    1.3540    1.1451   -7.1361 C   0  0  0  0  0  0  0  0  0  0  0  0
    0.0377    1.4914   -6.7496 C   0  0  0  0  0  0  0  0  0  0  0  0
   -1.0462    1.1236   -7.5571 C   0  0  0  0  0  0  0  0  0  0  0  0
   -2.4390    1.3359   -7.1439 C   0  0  0  0  0  0  0  0  0  0  0  0
   -2.8848    0.8669   -5.9091 C   0  0  0  0  0  0  0  0  0  0  0  0
   -4.2043    1.0155   -5.5393 C   0  0  0  0  0  0  0  0  0  0  0  0
   -5.1259    1.6319   -6.3831 C   0  0  0  0  0  0  0  0  0  0  0  0
   -6.8036    1.7369   -5.8273 S   0  0  0  0  0  0  0  0  0  0  0  0
   -7.3062    3.4335   -6.3020 C   0  0  0  0  0  0  0  0  0  0  0  0
   -6.4031    4.4835   -5.6863 C   0  0  0  0  0  0  0  0  0  0  0  0
   -4.6725    2.0658   -7.6246 C   0  0  0  0  0  0  0  0  0  0  0  0
   -3.3522    1.9322   -8.0050 C   0  0  0  0  0  0  0  0  0  0  0  0
   -5.5192    2.6374   -8.5094 F   0  0  0  0  0  0  0  0  0  0  0  0
   -0.7512    0.3940   -8.6960 C   0  0  0  0  0  0  0  0  0  0  0  0
   -1.9479   -0.3293   -9.7301 S   0  0  0  0  0  0  0  0  0  0  0  0
    0.0005    2.1084   -5.4758 C   0  0  0  0  0  0  0  0  0  0  0  0
    1.2222    2.2101   -4.8852 C   0  0  0  0  0  0  0  0  0  0  0  0
    2.5131    1.6194   -5.9191 S   0  0  0  0  0  0  0  0  0  0  0  0
    1.4838    2.5184   -3.5196 C   0  0  0  0  0  0  0  0  0  0  0  0
    2.6850    2.6081   -2.8846 C   0  0  0  0  0  0  0  0  0  0  0  0
    2.5798    2.5762   -1.4696 C   0  0  0  0  0  0  0  0  0  0  0  0
    3.6372    2.5204   -0.5446 C   0  0  0  0  0  0  0  0  0  0  0  0
    5.0239    2.7070   -0.9853 C   0  0  0  0  0  0  0  0  0  0  0  0
    6.0258    1.8048   -0.6378 C   0  0  0  0  0  0  0  0  0  0  0  0
    7.3259    1.9738   -1.0723 C   0  0  0  0  0  0  0  0  0  0  0  0
    7.6771    3.0599   -1.8654 C   0  0  0  0  0  0  0  0  0  0  0  0
    9.2886    3.3777   -2.5016 S   0  0  0  0  0  0  0  0  0  0  0  0
   10.3878    2.3800   -1.4379 C   0  0  0  0  0  0  0  0  0  0  0  0
   10.4352    2.8976   -0.0132 C   0  0  0  0  0  0  0  0  0  0  0  0
    6.6619    3.9537   -2.2136 C   0  0  0  0  0  0  0  0  0  0  0  0
    6.9619    5.0138   -2.9895 F   0  0  0  0  0  0  0  0  0  0  0  0
    5.3615    3.7929   -1.7931 C   0  0  0  0  0  0  0  0  0  0  0  0
    3.2898    2.2049    0.7599 C   0  0  0  0  0  0  0  0  0  0  0  0
    1.9482    2.0174    1.1706 C   0  0  0  0  0  0  0  0  0  0  0  0
    0.8776    2.2239    0.2817 C   0  0  0  0  0  0  0  0  0  0  0  0
   -0.5087    2.1642    0.7521 C   0  0  0  0  0  0  0  0  0  0  0  0
   -0.8654    2.7393    1.9760 C   0  0  0  0  0  0  0  0  0  0  0  0
   -2.1532    2.6520    2.4498 C   0  0  0  0  0  0  0  0  0  0  0  0
   -3.1599    2.0013    1.7314 C   0  0  0  0  0  0  0  0  0  0  0  0
   -4.7427    1.9526    2.5004 S   0  0  0  0  0  0  0  0  0  0  0  0
   -5.6988    0.6602    1.6136 C   0  0  0  0  0  0  0  0  0  0  0  0
   -6.9014    0.2842    2.4566 C   0  0  0  0  0  0  0  0  0  0  0  0
   -2.8079    1.4898    0.4873 C   0  0  0  0  0  0  0  0  0  0  0  0
   -1.5140    1.5557    0.0095 C   0  0  0  0  0  0  0  0  0  0  0  0
   -3.7182    0.8832   -0.3107 F   0  0  0  0  0  0  0  0  0  0  0  0
    1.2344    2.4485   -1.0406 C   0  0  0  0  0  0  0  0  0  0  0  0
    0.1405    2.5002   -2.3972 S   0  0  0  0  0  0  0  0  0  0  0  0
    1.8740    1.5030    2.4884 C   0  0  0  0  0  0  0  0  0  0  0  0
    3.0854    1.3610    3.0927 C   0  0  0  0  0  0  0  0  0  0  0  0
    4.4019    1.8987    2.0732 S   0  0  0  0  0  0  0  0  0  0  0  0
    3.2602    0.7539    4.3824 C   0  0  0  0  0  0  0  0  0  0  0  0
    2.5058   -0.2947    4.8099 C   0  0  0  0  0  0  0  0  0  0  0  0
    2.6972   -0.6227    6.1768 C   0  0  0  0  0  0  0  0  0  0  0  0
    1.9653   -1.5444    6.9412 C   0  0  0  0  0  0  0  0  0  0  0  0
    0.9383   -2.3775    6.3044 C   0  0  0  0  0  0  0  0  0  0  0  0
   -0.3673   -2.4488    6.7884 C   0  0  0  0  0  0  0  0  0  0  0  0
   -1.3252   -3.1760    6.1171 C   0  0  0  0  0  0  0  0  0  0  0  0
   -1.0353   -3.8763    4.9420 C   0  0  0  0  0  0  0  0  0  0  0  0
   -2.3846   -4.7476    4.2181 S   0  0  0  0  0  0  0  0  0  0  0  0
   -1.7938   -5.3352    2.5820 C   0  0  0  0  0  0  0  0  0  0  0  0
   -2.9428   -6.0024    1.8532 C   0  0  0  0  0  0  0  0  0  0  0  0
    0.2822   -3.8277    4.4951 C   0  0  0  0  0  0  0  0  0  0  0  0
    0.6927   -4.5024    3.3953 F   0  0  0  0  0  0  0  0  0  0  0  0
    1.2475   -3.0923    5.1527 C   0  0  0  0  0  0  0  0  0  0  0  0
    2.2554   -1.5864    8.2966 C   0  0  0  0  0  0  0  0  0  0  0  0
    3.2462   -0.7733    8.8996 C   0  0  0  0  0  0  0  0  0  0  0  0
    3.9657    0.1567    8.1335 C   0  0  0  0  0  0  0  0  0  0  0  0
    4.9500    1.0627    8.7369 C   0  0  0  0  0  0  0  0  0  0  0  0
    4.6308    1.8287    9.8571 C   0  0  0  0  0  0  0  0  0  0  0  0
    5.5499    2.7051   10.3921 C   0  0  0  0  0  0  0  0  0  0  0  0
    6.8249    2.8428    9.8463 C   0  0  0  0  0  0  0  0  0  0  0  0
    7.9346    3.9619   10.6490 S   0  0  0  0  0  0  0  0  0  0  0  0
    8.8082    4.7862    9.2668 C   0  0  0  0  0  0  0  0  0  0  0  0
    7.8476    5.4701    8.3151 C   0  0  0  0  0  0  0  0  0  0  0  0
    7.1382    2.0517    8.7453 C   0  0  0  0  0  0  0  0  0  0  0  0
    6.2187    1.1908    8.1819 C   0  0  0  0  0  0  0  0  0  0  0  0
    8.3686    2.0946    8.1888 F   0  0  0  0  0  0  0  0  0  0  0  0
    3.6696    0.2099    6.7785 C   0  0  0  0  0  0  0  0  0  0  0  0
    4.3311    1.3523    5.6301 S   0  0  0  0  0  0  0  0  0  0  0  0
    3.3838   -1.0635   10.2904 C   0  0  0  0  0  0  0  0  0  0  0  0
    2.5358   -2.0219   10.7135 C   0  0  0  0  0  0  0  0  0  0  0  0
    1.5107   -2.6449    9.4653 S   0  0  0  0  0  0  0  0  0  0  0  0
   -6.4347   -2.3690    7.1668 H   0  0  0  0  0  0  0  0  0  0  0  0
   -4.2416   -1.0403    6.7456 H   0  0  0  0  0  0  0  0  0  0  0  0
   -0.4963   -0.7925    4.1880 H   0  0  0  0  0  0  0  0  0  0  0  0
    0.6963    1.0469    5.3286 H   0  0  0  0  0  0  0  0  0  0  0  0
   -1.4725    2.6521    8.7747 H   0  0  0  0  0  0  0  0  0  0  0  0
    0.0015    3.5434    9.2051 H   0  0  0  0  0  0  0  0  0  0  0  0
    0.1821    1.1458    9.9415 H   0  0  0  0  0  0  0  0  0  0  0  0
    1.3823    1.5245    8.6968 H   0  0  0  0  0  0  0  0  0  0  0  0
   -0.0714    0.6218    8.2710 H   0  0  0  0  0  0  0  0  0  0  0  0
   -4.2133    0.9242    5.4379 H   0  0  0  0  0  0  0  0  0  0  0  0
   -6.0235   -5.2475    3.1775 H   0  0  0  0  0  0  0  0  0  0  0  0
   -7.5912   -6.5741    1.8877 H   0  0  0  0  0  0  0  0  0  0  0  0
   -8.3985   -8.1071    0.3619 H   0  0  0  0  0  0  0  0  0  0  0  0
   -9.7039   -7.1697    1.1480 H   0  0  0  0  0  0  0  0  0  0  0  0
   -9.9333   -8.6347   -1.5316 H   0  0  0  0  0  0  0  0  0  0  0  0
  -11.2212   -7.7100   -0.7570 H   0  0  0  0  0  0  0  0  0  0  0  0
  -10.6242   -9.1939   -0.0030 H   0  0  0  0  0  0  0  0  0  0  0  0
   -6.0559   -2.2267    0.1361 H   0  0  0  0  0  0  0  0  0  0  0  0
   -3.8476   -3.0891   -0.0856 H   0  0  0  0  0  0  0  0  0  0  0  0
    3.8968   -0.8825   -0.4410 H   0  0  0  0  0  0  0  0  0  0  0  0
    2.8082   -0.8489    0.8711 H   0  0  0  0  0  0  0  0  0  0  0  0
    3.3337   -0.2649   -3.8664 H   0  0  0  0  0  0  0  0  0  0  0  0
    3.8838    0.2368   -2.3383 H   0  0  0  0  0  0  0  0  0  0  0  0
   -0.3469   -1.9120   -5.3596 H   0  0  0  0  0  0  0  0  0  0  0  0
   -3.0862   -3.1635   -4.7093 H   0  0  0  0  0  0  0  0  0  0  0  0
   -6.6557   -5.0430   -5.5880 H   0  0  0  0  0  0  0  0  0  0  0  0
   -7.4852   -5.3615   -7.0349 H   0  0  0  0  0  0  0  0  0  0  0  0
   -6.8734   -6.5421   -8.7922 H   0  0  0  0  0  0  0  0  0  0  0  0
   -6.1459   -6.0698  -10.2578 H   0  0  0  0  0  0  0  0  0  0  0  0
   -2.3735   -4.2467  -11.1823 H   0  0  0  0  0  0  0  0  0  0  0  0
   -0.9292   -2.5958  -12.2536 H   0  0  0  0  0  0  0  0  0  0  0  0
    1.4157   -1.4942  -10.4509 H   0  0  0  0  0  0  0  0  0  0  0  0
    3.7914    1.9553   -8.5784 H   0  0  0  0  0  0  0  0  0  0  0  0
    6.1023    1.2980   -8.9351 H   0  0  0  0  0  0  0  0  0  0  0  0
    8.1484    0.8464   -9.3059 H   0  0  0  0  0  0  0  0  0  0  0  0
    9.4049   -0.3487   -8.9606 H   0  0  0  0  0  0  0  0  0  0  0  0
    9.0065    1.1189   -6.9619 H   0  0  0  0  0  0  0  0  0  0  0  0
    8.6147   -0.5715   -6.6213 H   0  0  0  0  0  0  0  0  0  0  0  0
    7.3206    0.5912   -6.9161 H   0  0  0  0  0  0  0  0  0  0  0  0
    2.6145   -2.1613   -8.4954 H   0  0  0  0  0  0  0  0  0  0  0  0
   -2.1963    0.3620   -5.2486 H   0  0  0  0  0  0  0  0  0  0  0  0
   -4.5474    0.6493   -4.5842 H   0  0  0  0  0  0  0  0  0  0  0  0
   -7.3350    3.5055   -7.3869 H   0  0  0  0  0  0  0  0  0  0  0  0
   -8.3217    3.5115   -5.9138 H   0  0  0  0  0  0  0  0  0  0  0  0
   -6.3668    4.3691   -4.6049 H   0  0  0  0  0  0  0  0  0  0  0  0
   -6.7810    5.4764   -5.9215 H   0  0  0  0  0  0  0  0  0  0  0  0
   -5.3901    4.4000   -6.0761 H   0  0  0  0  0  0  0  0  0  0  0  0
   -3.0497    2.2935   -8.9757 H   0  0  0  0  0  0  0  0  0  0  0  0
   -0.9056    2.4347   -4.9972 H   0  0  0  0  0  0  0  0  0  0  0  0
    3.6197    2.6311   -3.4173 H   0  0  0  0  0  0  0  0  0  0  0  0
    5.7853    0.9460   -0.0302 H   0  0  0  0  0  0  0  0  0  0  0  0
    8.0655    1.2411   -0.7934 H   0  0  0  0  0  0  0  0  0  0  0  0
   11.3607    2.4782   -1.9194 H   0  0  0  0  0  0  0  0  0  0  0  0
   10.0788    1.3369   -1.4935 H   0  0  0  0  0  0  0  0  0  0  0  0
   11.1307    2.3006    0.5734 H   0  0  0  0  0  0  0  0  0  0  0  0
   10.7691    3.9324   -0.0012 H   0  0  0  0  0  0  0  0  0  0  0  0
    9.4543    2.8481    0.4551 H   0  0  0  0  0  0  0  0  0  0  0  0
    4.6222    4.5262   -2.0749 H   0  0  0  0  0  0  0  0  0  0  0  0
   -0.1282    3.2738    2.5549 H   0  0  0  0  0  0  0  0  0  0  0  0
   -2.4109    3.0916    3.4006 H   0  0  0  0  0  0  0  0  0  0  0  0
   -6.0032    1.0593    0.6473 H   0  0  0  0  0  0  0  0  0  0  0  0
   -5.0395   -0.1937    1.4754 H   0  0  0  0  0  0  0  0  0  0  0  0
   -6.5847   -0.0893    3.4277 H   0  0  0  0  0  0  0  0  0  0  0  0
   -7.4722   -0.4945    1.9551 H   0  0  0  0  0  0  0  0  0  0  0  0
   -7.5459    1.1465    2.6111 H   0  0  0  0  0  0  0  0  0  0  0  0
   -1.3098    1.0840   -0.9374 H   0  0  0  0  0  0  0  0  0  0  0  0
    0.9477    1.2197    2.9516 H   0  0  0  0  0  0  0  0  0  0  0  0
    1.8113   -0.8014    4.1661 H   0  0  0  0  0  0  0  0  0  0  0  0
   -0.6382   -1.9109    7.6836 H   0  0  0  0  0  0  0  0  0  0  0  0
   -2.3376   -3.2137    6.4884 H   0  0  0  0  0  0  0  0  0  0  0  0
   -1.4295   -4.4700    2.0304 H   0  0  0  0  0  0  0  0  0  0  0  0
   -0.9830   -6.0416    2.7491 H   0  0  0  0  0  0  0  0  0  0  0  0
   -2.5939   -6.3706    0.8909 H   0  0  0  0  0  0  0  0  0  0  0  0
   -3.3260   -6.8413    2.4301 H   0  0  0  0  0  0  0  0  0  0  0  0
   -3.7538   -5.2997    1.6828 H   0  0  0  0  0  0  0  0  0  0  0  0
    2.2542   -3.1079    4.7636 H   0  0  0  0  0  0  0  0  0  0  0  0
    3.6438    1.7592   10.2887 H   0  0  0  0  0  0  0  0  0  0  0  0
    5.2949    3.3086   11.2492 H   0  0  0  0  0  0  0  0  0  0  0  0
    9.4374    4.0580    8.7597 H   0  0  0  0  0  0  0  0  0  0  0  0
    9.4436    5.5123    9.7741 H   0  0  0  0  0  0  0  0  0  0  0  0
    7.2137    4.7425    7.8114 H   0  0  0  0  0  0  0  0  0  0  0  0
    8.4086    6.0165    7.5596 H   0  0  0  0  0  0  0  0  0  0  0  0
    7.2107    6.1698    8.8522 H   0  0  0  0  0  0  0  0  0  0  0  0
    6.5166    0.6007    7.3292 H   0  0  0  0  0  0  0  0  0  0  0  0
    4.1037   -0.5808   10.9259 H   0  0  0  0  0  0  0  0  0  0  0  0
    2.4362   -2.4229   11.7032 H   0  0  0  0  0  0  0  0  0  0  0  0
  1  2  2  0  0  0  0
  2  3  1  0  0  0  0
  3  4  2  0  0  0  0
  4  5  1  0  0  0  0
  5  6  2  0  0  0  0
  6  7  1  0  0  0  0
  7  8  2  0  0  0  0
  8  9  1  0  0  0  0
  9 10  1  0  0  0  0
 10 11  1  0  0  0  0
  8 12  1  0  0  0  0
 12 13  1  0  0  0  0
 12 14  2  0  0  0  0
  4 15  1  0  0  0  0
 15 16  2  0  0  0  0
 16 17  1  0  0  0  0
 17 18  1  0  0  0  0
 18 19  2  0  0  0  0
 19 20  1  0  0  0  0
 20 21  2  0  0  0  0
 21 22  1  0  0  0  0
 22 23  1  0  0  0  0
 23 24  1  0  0  0  0
 21 25  1  0  0  0  0
 25 26  2  0  0  0  0
 25 27  1  0  0  0  0
 17 28  2  0  0  0  0
 28 29  1  0  0  0  0
 16 30  1  0  0  0  0
 30 31  2  0  0  0  0
 31 32  1  0  0  0  0
 31 33  1  0  0  0  0
 33 34  1  0  0  0  0
 34 35  1  0  0  0  0
 35 36  2  0  0  0  0
 36 37  1  0  0  0  0
 37 38  1  0  0  0  0
 38 39  2  0  0  0  0
 39 40  1  0  0  0  0
 39 41  1  0  0  0  0
 41 42  1  0  0  0  0
 41 43  2  0  0  0  0
 35 44  1  0  0  0  0
 44 45  2  0  0  0  0
 45 46  1  0  0  0  0
 46 47  1  0  0  0  0
 47 48  1  0  0  0  0
 48 49  2  0  0  0  0
 49 50  1  0  0  0  0
 50 51  1  0  0  0  0
 51 52  2  0  0  0  0
 52 53  1  0  0  0  0
 52 54  1  0  0  0  0
 54 55  1  0  0  0  0
 54 56  2  0  0  0  0
 48 57  1  0  0  0  0
 57 58  2  0  0  0  0
 58 59  1  0  0  0  0
 59 60  2  0  0  0  0
 60 61  1  0  0  0  0
 61 62  2  0  0  0  0
 62 63  1  0  0  0  0
 63 64  2  0  0  0  0
 64 65  1  0  0  0  0
 65 66  2  0  0  0  0
 66 67  1  0  0  0  0
 67 68  1  0  0  0  0
 68 69  1  0  0  0  0
 66 70  1  0  0  0  0
 70 71  1  0  0  0  0
 70 72  2  0  0  0  0
 62 73  1  0  0  0  0
 73 74  2  0  0  0  0
 74 75  1  0  0  0  0
 75 76  1  0  0  0  0
 76 77  2  0  0  0  0
 77 78  1  0  0  0  0
 78 79  2  0  0  0  0
 79 80  1  0  0  0  0
 80 81  1  0  0  0  0
 81 82  1  0  0  0  0
 79 83  1  0  0  0  0
 83 84  2  0  0  0  0
 83 85  1  0  0  0  0
 75 86  2  0  0  0  0
 86 87  1  0  0  0  0
 74 88  1  0  0  0  0
 88 89  2  0  0  0  0
 89 90  1  0  0  0  0
 89 91  1  0  0  0  0
 91 92  2  0  0  0  0
 92 93  1  0  0  0  0
 93 94  2  0  0  0  0
 94 95  1  0  0  0  0
 95 96  2  0  0  0  0
 96 97  1  0  0  0  0
 97 98  2  0  0  0  0
 98 99  1  0  0  0  0
 99100  1  0  0  0  0
100101  1  0  0  0  0
 98102  1  0  0  0  0
102103  1  0  0  0  0
102104  2  0  0  0  0
 94105  1  0  0  0  0
105106  2  0  0  0  0
106107  1  0  0  0  0
107108  1  0  0  0  0
108109  2  0  0  0  0
109110  1  0  0  0  0
110111  2  0  0  0  0
111112  1  0  0  0  0
112113  1  0  0  0  0
113114  1  0  0  0  0
111115  1  0  0  0  0
115116  2  0  0  0  0
115117  1  0  0  0  0
107118  2  0  0  0  0
118119  1  0  0  0  0
106120  1  0  0  0  0
120121  2  0  0  0  0
121122  1  0  0  0  0
121123  1  0  0  0  0
123124  2  0  0  0  0
124125  1  0  0  0  0
125126  2  0  0  0  0
126127  1  0  0  0  0
127128  2  0  0  0  0
128129  1  0  0  0  0
129130  2  0  0  0  0
130131  1  0  0  0  0
131132  1  0  0  0  0
132133  1  0  0  0  0
130134  1  0  0  0  0
134135  1  0  0  0  0
134136  2  0  0  0  0
126137  1  0  0  0  0
137138  2  0  0  0  0
138139  1  0  0  0  0
139140  1  0  0  0  0
140141  2  0  0  0  0
141142  1  0  0  0  0
142143  2  0  0  0  0
143144  1  0  0  0  0
144145  1  0  0  0  0
145146  1  0  0  0  0
143147  1  0  0  0  0
147148  2  0  0  0  0
147149  1  0  0  0  0
139150  2  0  0  0  0
150151  1  0  0  0  0
138152  1  0  0  0  0
152153  2  0  0  0  0
153154  1  0  0  0  0
 29  1  1  0  0  0  0
 37 33  2  0  0  0  0
 50 46  2  0  0  0  0
 87 59  1  0  0  0  0
119 91  1  0  0  0  0
151123  1  0  0  0  0
 28  3  1  0  0  0  0
 43 36  1  0  0  0  0
 56 49  1  0  0  0  0
 86 61  1  0  0  0  0
118 93  1  0  0  0  0
150125  1  0  0  0  0
 14  5  1  0  0  0  0
 32 15  1  0  0  0  0
 72 63  1  0  0  0  0
 90 73  1  0  0  0  0
104 95  1  0  0  0  0
122105  1  0  0  0  0
136127  1  0  0  0  0
154137  1  0  0  0  0
 26 18  1  0  0  0  0
 84 76  1  0  0  0  0
116108  1  0  0  0  0
148140  1  0  0  0  0
  1155  1  0  0  0  0
  2156  1  0  0  0  0
  6157  1  0  0  0  0
  7158  1  0  0  0  0
 10159  1  0  0  0  0
 10160  1  0  0  0  0
 11161  1  0  0  0  0
 11162  1  0  0  0  0
 11163  1  0  0  0  0
 14164  1  0  0  0  0
 19165  1  0  0  0  0
 20166  1  0  0  0  0
 23167  1  0  0  0  0
 23168  1  0  0  0  0
 24169  1  0  0  0  0
 24170  1  0  0  0  0
 24171  1  0  0  0  0
 26172  1  0  0  0  0
 30173  1  0  0  0  0
 40174  1  0  0  0  0
 40175  1  0  0  0  0
 42176  1  0  0  0  0
 42177  1  0  0  0  0
 44178  1  0  0  0  0
 45179  1  0  0  0  0
 53180  1  0  0  0  0
 53181  1  0  0  0  0
 55182  1  0  0  0  0
 55183  1  0  0  0  0
 57184  1  0  0  0  0
 58185  1  0  0  0  0
 60186  1  0  0  0  0
 64187  1  0  0  0  0
 65188  1  0  0  0  0
 68189  1  0  0  0  0
 68190  1  0  0  0  0
 69191  1  0  0  0  0
 69192  1  0  0  0  0
 69193  1  0  0  0  0
 72194  1  0  0  0  0
 77195  1  0  0  0  0
 78196  1  0  0  0  0
 81197  1  0  0  0  0
 81198  1  0  0  0  0
 82199  1  0  0  0  0
 82200  1  0  0  0  0
 82201  1  0  0  0  0
 84202  1  0  0  0  0
 88203  1  0  0  0  0
 92204  1  0  0  0  0
 96205  1  0  0  0  0
 97206  1  0  0  0  0
100207  1  0  0  0  0
100208  1  0  0  0  0
101209  1  0  0  0  0
101210  1  0  0  0  0
101211  1  0  0  0  0
104212  1  0  0  0  0
109213  1  0  0  0  0
110214  1  0  0  0  0
113215  1  0  0  0  0
113216  1  0  0  0  0
114217  1  0  0  0  0
114218  1  0  0  0  0
114219  1  0  0  0  0
116220  1  0  0  0  0
120221  1  0  0  0  0
124222  1  0  0  0  0
128223  1  0  0  0  0
129224  1  0  0  0  0
132225  1  0  0  0  0
132226  1  0  0  0  0
133227  1  0  0  0  0
133228  1  0  0  0  0
133229  1  0  0  0  0
136230  1  0  0  0  0
141231  1  0  0  0  0
142232  1  0  0  0  0
145233  1  0  0  0  0
145234  1  0  0  0  0
146235  1  0  0  0  0
146236  1  0  0  0  0
146237  1  0  0  0  0
148238  1  0  0  0  0
152239  1  0  0  0  0
153240  1  0  0  0  0
M  END
