271

C          0.62360       -5.19880        9.68950
C          0.81430       -4.04140        9.02630
C         -0.35000       -3.59680        8.32900
C         -0.51930       -2.42580        7.56930
C          0.62960       -1.55640        7.28540
C          0.56550       -0.17420        7.44340
C          1.68150        0.61260        7.23870
C          2.88910        0.04690        6.85230
S          4.37840        1.01120        6.72930
C          3.91210        2.19040        5.41570
C          3.87250        1.50690        4.06380
C          2.93180       -1.32720        6.64790
F          4.07550       -1.91080        6.23850
C          1.82760       -2.12570        6.85820
C         -1.79870       -2.16810        7.09220
C         -2.88600       -3.05850        7.29610
C         -2.70690       -4.24700        8.02190
C         -3.81150       -5.18250        8.26120
C         -3.67360       -6.53710        7.97500
C         -4.70210       -7.42740        8.21400
C         -5.90270       -6.99610        8.76570
S         -7.29280       -8.02330        9.11270
C         -6.60040       -9.71300        9.12590
C         -5.66920       -9.94460       10.30060
C         -6.02970       -5.63390        9.04230
C         -5.01680       -4.73450        8.79850
F         -7.18260       -5.17780        9.57410
C         -1.43590       -4.48240        8.52390
S         -0.97570       -5.84040        9.52080
C         -4.06710       -2.60550        6.66030
C         -3.91150       -1.40850        6.02130
S         -2.28040       -0.78020        6.14650
C         -4.87950       -0.65460        5.31450
S         -6.51120       -1.15150        5.02250
C         -6.88730        0.26600        4.07800
C         -5.78770        1.11840        4.04840
C         -4.65610        0.58650        4.73530
N         -3.46940        1.22960        4.77780
C         -3.40170        2.38240        4.17500
N         -2.22180        3.07520        4.22350
C         -4.57390        2.97220        3.54560
N         -4.45550        4.19240        2.93670
N         -5.72170        2.35630        3.48950
C         -8.19860        0.39880        3.51420
C         -8.51790        1.06800        2.39070
C         -7.54330        1.64580        1.49760
C         -7.51770        2.90010        0.97530
C         -6.29410        3.22060        0.32580
C         -5.85800        4.46820       -0.15120
C         -6.69690        5.67230       -0.09410
C         -7.35040        6.06130        1.07490
C         -8.11780        7.20550        1.10520
C         -8.26160        8.01600       -0.01960
S         -9.23170        9.48260        0.16700
C        -10.12480        9.64670       -1.42260
C        -10.97030        8.42700       -1.72800
C         -7.58010        7.63320       -1.17080
F         -7.63810        8.38330       -2.29240
C         -6.82080        6.48180       -1.21880
C         -4.54920        4.53550       -0.61480
C         -3.69230        3.41400       -0.64660
C         -4.13010        2.15890       -0.20170
C         -3.20680        1.01510       -0.16810
C         -2.96580        0.31110        1.01070
C         -2.07710       -0.74430        1.03590
C         -1.38660       -1.12840       -0.11050
S         -0.27000       -2.50190       -0.03240
C         -0.66430       -3.39520       -1.59120
C         -0.18440       -4.82770       -1.48100
C         -1.59930       -0.38520       -1.26650
C         -2.50490        0.65400       -1.31400
F         -0.88390       -0.64860       -2.38580
C         -5.42160        2.10170        0.29110
S         -6.14340        0.70580        1.02750
C         -2.36100        3.78110       -0.97070
C         -2.18650        5.11370       -1.15760
S         -3.68280        6.00510       -1.02570
C         -0.83300        5.64200       -1.20570
C         -0.08330        5.76760       -0.08270
C          1.31610        5.69140       -0.31920
C          2.27270        5.34360        0.64210
C          1.86870        5.14760        2.04920
C          1.75430        6.18230        2.96630
C          1.34190        5.93340        4.26370
C          1.00870        4.64720        4.67140
S          0.48840        4.20620        6.30130
C         -0.39100        5.69660        6.87680
C         -1.60430        6.00130        6.02040
C          1.12790        3.62100        3.73510
F          0.79180        2.36260        4.08830
C          1.55290        3.85140        2.44730
C          3.48440        4.87590        0.17430
C          3.80930        4.81770       -1.20410
C          2.85260        5.17660       -2.16760
C          3.05130        4.85720       -3.59130
C          2.93650        5.81860       -4.59030
C          3.13750        5.47860       -5.91250
C          3.43080        4.16970       -6.29300
S          3.65210        3.84770       -8.01570
C          5.01620        2.62530       -8.07440
C          6.26440        3.12130       -7.37390
C          3.47410        3.20810       -5.28730
C          3.30650        3.53910       -3.95910
F          3.66670        1.90140       -5.57730
C          1.61240        5.58320       -1.69780
S          0.14930        5.62020       -2.65990
C          4.97850        4.04460       -1.43120
C          5.42780        3.40200       -0.31280
S          4.62450        3.96910        1.14190
C          5.98420        2.07980       -0.36820
C          5.42790        1.03330        0.31060
C          5.48530       -0.19170       -0.40450
C          4.65520       -1.30850       -0.22210
C          3.65770       -1.41860        0.85400
C          2.73440       -0.40200        1.09640
C          1.72440       -0.57330        2.01890
C          1.58860       -1.76150        2.73260
S          0.23990       -1.88590        3.86960
C         -0.44320       -3.56350        3.54710
C         -0.15180       -4.56250        4.64810
C          2.53550       -2.75450        2.50600
F          2.48750       -3.91720        3.18500
C          3.54530       -2.60080        1.57770
C          4.64790       -2.24240       -1.25010
C          5.45320       -2.14650       -2.41050
C          6.29360       -1.03580       -2.58210
C          7.00740       -0.76180       -3.83780
C          8.35950       -0.42830       -3.83170
C          9.01080       -0.11570       -5.00720
C          8.33620       -0.11200       -6.22420
S          9.22720        0.36640       -7.68180
C          8.79050       -0.96000       -8.86740
C          9.21610       -2.32450       -8.36400
C          6.97980       -0.41890       -6.21130
C          6.31840       -0.74800       -5.04680
F          6.25860       -0.39160       -7.35420
C          6.26130       -0.07500       -1.58490
S          6.87160        1.55220       -1.78840
C          5.08270       -3.10790       -3.39300
C          3.98020       -3.82140       -3.05300
S          3.43780       -3.48520       -1.42090
C          3.06680       -4.49160       -3.95530
C          1.89320       -3.90830       -4.30450
C          1.16840       -4.62270       -5.29240
C         -0.04620       -4.25290       -5.88810
C         -0.61000       -2.91790       -5.64950
C          0.21410       -1.80100       -5.78030
C         -0.26440       -0.52400       -5.57110
C         -1.58990       -0.31440       -5.21210
S         -2.30260        1.26750       -4.89740
C         -0.86700        2.33550       -4.50270
C         -0.32020        3.07650       -5.70800
C         -2.41040       -1.43760       -5.10190
F         -3.70330       -1.27390       -4.75470
C         -1.94680       -2.71800       -5.31690
C         -0.60040       -5.17270       -6.76660
C          0.03830       -6.39010       -7.11120
C          1.28750       -6.72070       -6.56320
C          2.00150       -7.94340       -6.95310
C          1.39090       -9.19460       -6.88990
C          2.07090      -10.32670       -7.28430
C          3.38420      -10.26310       -7.74850
S          4.15020      -11.79210       -8.19710
C          5.20720      -11.37610       -9.63340
C          4.41290      -10.76470      -10.76990
C          3.99330       -9.01240       -7.76720
C          3.31900       -7.86860       -7.39130
F          5.27760       -8.86830       -8.16390
C          1.82580       -5.82030       -5.65430
S          3.34940       -5.99000       -4.80670
C         -0.70700       -7.10740       -8.09540
C         -1.84200       -6.47750       -8.45880
S         -2.09150       -4.96960       -7.64780
H          1.32990       -5.73990       10.28830
H          1.73890       -3.49400        9.04570
H         -0.35440        0.28590        7.76800
H          1.62280        1.67850        7.39820
H          4.68260        2.96030        5.44730
H          2.95160        2.62880        5.68060
H          4.81180        0.98940        3.87940
H          3.06320        0.77980        4.02740
H          3.71820        2.24680        3.28000
H          1.90490       -3.18460        6.66790
H         -2.75440       -6.89870        7.53990
H         -4.56090       -8.46500        7.95850
H         -7.48400      -10.34710        9.19970
H         -6.11830       -9.90260        8.16770
H         -5.31440      -10.97350       10.29440
H         -6.19380       -9.76270       11.23560
H         -4.80920       -9.27960       10.25500
H         -5.16020       -3.69660        9.05500
H         -4.99760       -3.14450        6.66340
H         -1.46690        2.52300        4.61060
H         -1.97650        3.60250        3.39970
H         -3.80850        4.84820        3.34280
H         -5.32660        4.58660        2.61570
H         -8.98820       -0.09000        4.07050
H         -9.55900        1.20170        2.12960
H         -8.31920        3.60190        1.11670
H         -7.25570        5.46660        1.97120
H         -8.62410        7.49920        2.01170
H        -10.74750       10.52760       -1.26550
H         -9.40780        9.85580       -2.21320
H        -10.34530        7.54970       -1.88400
H        -11.65600        8.22200       -0.90830
H        -11.54870        8.60070       -2.63310
H         -6.33160        6.22440       -2.14530
H         -3.47400        0.59370        1.91930
H         -1.89740       -1.27950        1.95450
H         -1.74480       -3.34430       -1.72260
H         -0.17200       -2.88470       -2.41610
H          0.88850       -4.85520       -1.30200
H         -0.68560       -5.33930       -0.66260
H         -0.39570       -5.35530       -2.40910
H         -2.66720        1.16750       -2.24900
H         -1.54470        3.08070       -0.99270
H         -0.50860        5.78910        0.90530
H          1.99840        7.19040        2.66750
H          1.28380        6.75250        4.96280
H         -0.68590        5.43830        7.89350
H          0.30950        6.52980        6.91850
H         -2.16250        6.82940        6.45250
H         -2.25060        5.12760        5.96650
H         -1.30460        6.27550        5.00990
H          1.61870        3.02700        1.75430
H          2.71460        6.84080       -4.32490
H          3.07310        6.22940       -6.68430
H          5.18970        2.50680       -9.14390
H          4.66590        1.67950       -7.66850
H          6.55580        4.09780       -7.75480
H          6.10700        3.20030       -6.29940
H          7.08190        2.42530       -7.54860
H          3.34320        2.75290       -3.22000
H          5.37630        3.84550       -2.40970
H          4.87220        1.15880        1.22180
H          2.77820        0.50790        0.51660
H          0.99650        0.20460        2.19080
H         -1.51840       -3.40240        3.45720
H         -0.05050       -3.88420        2.58460
H         -0.55870       -4.21540        5.59440
H         -0.61540       -5.51570        4.39980
H          0.91690       -4.71950        4.75920
H          4.24860       -3.40750        1.43900
H          8.90450       -0.42910       -2.90020
H         10.05950        0.13650       -5.00140
H          7.72260       -0.91410       -9.06990
H          9.33550       -0.68400       -9.76980
H         10.28320       -2.33740       -8.15200
H          8.68010       -2.58600       -7.45300
H          9.00070       -3.07800       -9.11900
H          5.25790       -0.94210       -5.08780
H          5.56730       -3.20170       -4.34780
H          1.56030       -2.97990       -3.87720
H          1.24370       -1.93280       -6.07760
H          0.40780        0.30970       -5.69020
H         -0.11690        1.71230       -4.01800
H         -1.25830        3.04810       -3.77510
H          0.08130        2.39390       -6.45310
H          0.47240        3.75340       -5.39190
H         -1.10730        3.66350       -6.17490
H         -2.62500       -3.54830       -5.19830
H          0.38090       -9.27760       -6.51840
H          1.59380      -11.29350       -7.24030
H          5.62290      -12.34210       -9.92050
H          6.01520      -10.72680       -9.30410
H          3.59380      -11.41970      -11.05980
H          5.06230      -10.61450      -11.63000
H          3.99920       -9.80040      -10.48110
H          3.83390       -6.92240       -7.45160
H         -0.38550       -8.04410       -8.51270
H         -2.57520       -6.80130       -9.17140
