
  xtb     03082202513D
 energy: -464.305375036340 gnorm: 0.000506056918 xtb: 6.4.1 (unknown)
267292  0     0  0            999 V2000
    1.5264   -1.3079   -8.7906 C   0  0  0  0  0  0  0  0  0  0  0  0
    1.5473   -2.0460   -7.6638 C   0  0  0  0  0  0  0  0  0  0  0  0
    2.4770   -1.5549   -6.6973 C   0  0  0  0  0  0  0  0  0  0  0  0
    2.7279   -2.0475   -5.4103 C   0  0  0  0  0  0  0  0  0  0  0  0
    1.9859   -3.2028   -4.8860 C   0  0  0  0  0  0  0  0  0  0  0  0
    1.9608   -4.4155   -5.5702 C   0  0  0  0  0  0  0  0  0  0  0  0
    1.2374   -5.4814   -5.0799 C   0  0  0  0  0  0  0  0  0  0  0  0
    0.4950   -5.3712   -3.9073 C   0  0  0  0  0  0  0  0  0  0  0  0
   -0.4589   -6.7767   -3.4053 S   0  0  0  0  0  0  0  0  0  0  0  0
   -0.1730   -6.8556   -1.5969 C   0  0  0  0  0  0  0  0  0  0  0  0
    1.3005   -6.9567   -1.2582 C   0  0  0  0  0  0  0  0  0  0  0  0
    0.5126   -4.1465   -3.2469 C   0  0  0  0  0  0  0  0  0  0  0  0
   -0.2294   -3.9543   -2.1333 F   0  0  0  0  0  0  0  0  0  0  0  0
    1.2616   -3.0815   -3.7050 C   0  0  0  0  0  0  0  0  0  0  0  0
    3.6956   -1.3906   -4.6647 C   0  0  0  0  0  0  0  0  0  0  0  0
    4.3925   -0.2512   -5.1367 C   0  0  0  0  0  0  0  0  0  0  0  0
    4.0975    0.2782   -6.4034 C   0  0  0  0  0  0  0  0  0  0  0  0
    4.7462    1.4994   -6.8918 C   0  0  0  0  0  0  0  0  0  0  0  0
    5.3490    1.5598   -8.1463 C   0  0  0  0  0  0  0  0  0  0  0  0
    5.9272    2.7301   -8.5887 C   0  0  0  0  0  0  0  0  0  0  0  0
    5.9355    3.8814   -7.8024 C   0  0  0  0  0  0  0  0  0  0  0  0
    6.7437    5.3059   -8.4671 S   0  0  0  0  0  0  0  0  0  0  0  0
    5.7186    6.7161   -7.9063 C   0  0  0  0  0  0  0  0  0  0  0  0
    4.2785    6.5884   -8.3597 C   0  0  0  0  0  0  0  0  0  0  0  0
    5.3537    3.7963   -6.5412 C   0  0  0  0  0  0  0  0  0  0  0  0
    4.7553    2.6371   -6.0922 C   0  0  0  0  0  0  0  0  0  0  0  0
    5.3568    4.8544   -5.6993 F   0  0  0  0  0  0  0  0  0  0  0  0
    3.1592   -0.4061   -7.1622 C   0  0  0  0  0  0  0  0  0  0  0  0
    2.6230    0.0351   -8.7658 S   0  0  0  0  0  0  0  0  0  0  0  0
    5.4152    0.1530   -4.2372 C   0  0  0  0  0  0  0  0  0  0  0  0
    5.5125   -0.6425   -3.1356 C   0  0  0  0  0  0  0  0  0  0  0  0
    4.2893   -1.9088   -3.1103 S   0  0  0  0  0  0  0  0  0  0  0  0
    6.4922   -0.6206   -2.1453 C   0  0  0  0  0  0  0  0  0  0  0  0
    7.3672   -0.7249   -1.3115 C   0  0  0  0  0  0  0  0  0  0  0  0
    8.3938   -0.9389   -0.3970 C   0  0  0  0  0  0  0  0  0  0  0  0
    8.8362    0.2175    0.8292 S   0  0  0  0  0  0  0  0  0  0  0  0
   10.0818   -0.8580    1.4212 C   0  0  0  0  0  0  0  0  0  0  0  0
   10.1283   -2.0242    0.6919 C   0  0  0  0  0  0  0  0  0  0  0  0
    9.1743   -2.0720   -0.3268 C   0  0  0  0  0  0  0  0  0  0  0  0
   10.8606   -0.5116    2.5169 C   0  0  0  0  0  0  0  0  0  0  0  0
   11.4693   -0.1757    3.5134 C   0  0  0  0  0  0  0  0  0  0  0  0
   12.2013    0.1946    4.6404 C   0  0  0  0  0  0  0  0  0  0  0  0
   11.7508    0.9819    5.6435 C   0  0  0  0  0  0  0  0  0  0  0  0
   10.4337    1.5252    5.7535 C   0  0  0  0  0  0  0  0  0  0  0  0
    9.3285    1.2579    5.0002 C   0  0  0  0  0  0  0  0  0  0  0  0
    8.1835    1.9951    5.3777 C   0  0  0  0  0  0  0  0  0  0  0  0
    6.9317    1.9929    4.7479 C   0  0  0  0  0  0  0  0  0  0  0  0
    6.5767    1.0363    3.6928 C   0  0  0  0  0  0  0  0  0  0  0  0
    5.9354    1.4343    2.5199 C   0  0  0  0  0  0  0  0  0  0  0  0
    5.4994    0.5016    1.6044 C   0  0  0  0  0  0  0  0  0  0  0  0
    5.6711   -0.8670    1.8178 C   0  0  0  0  0  0  0  0  0  0  0  0
    4.9361   -1.9515    0.6380 S   0  0  0  0  0  0  0  0  0  0  0  0
    5.9658   -3.4710    0.6873 C   0  0  0  0  0  0  0  0  0  0  0  0
    5.8503   -4.1769   -0.6491 C   0  0  0  0  0  0  0  0  0  0  0  0
    6.3387   -1.2485    2.9780 C   0  0  0  0  0  0  0  0  0  0  0  0
    6.5430   -2.5552    3.2685 F   0  0  0  0  0  0  0  0  0  0  0  0
    6.7957   -0.3236    3.8945 C   0  0  0  0  0  0  0  0  0  0  0  0
    6.0071    2.9089    5.2255 C   0  0  0  0  0  0  0  0  0  0  0  0
    6.2343    3.7610    6.3350 C   0  0  0  0  0  0  0  0  0  0  0  0
    7.4846    3.7411    6.9765 C   0  0  0  0  0  0  0  0  0  0  0  0
    7.7939    4.6323    8.1017 C   0  0  0  0  0  0  0  0  0  0  0  0
    8.3379    4.1341    9.2838 C   0  0  0  0  0  0  0  0  0  0  0  0
    8.6556    4.9829   10.3222 C   0  0  0  0  0  0  0  0  0  0  0  0
    8.4436    6.3569   10.2275 C   0  0  0  0  0  0  0  0  0  0  0  0
    8.8538    7.3407   11.6396 S   0  0  0  0  0  0  0  0  0  0  0  0
    9.6093    8.8483   10.9255 C   0  0  0  0  0  0  0  0  0  0  0  0
   10.8090    8.5254   10.0580 C   0  0  0  0  0  0  0  0  0  0  0  0
    7.8781    6.8370    9.0503 C   0  0  0  0  0  0  0  0  0  0  0  0
    7.5678    6.0008    7.9972 C   0  0  0  0  0  0  0  0  0  0  0  0
    7.6113    8.1532    8.8944 F   0  0  0  0  0  0  0  0  0  0  0  0
    8.4339    2.8624    6.4704 C   0  0  0  0  0  0  0  0  0  0  0  0
   10.0849    2.7067    7.0120 S   0  0  0  0  0  0  0  0  0  0  0  0
    5.0816    4.5445    6.6483 C   0  0  0  0  0  0  0  0  0  0  0  0
    4.0528    4.3479    5.7889 C   0  0  0  0  0  0  0  0  0  0  0  0
    4.4177    3.1312    4.5716 S   0  0  0  0  0  0  0  0  0  0  0  0
    2.7493    4.9303    5.5703 C   0  0  0  0  0  0  0  0  0  0  0  0
    2.3665    5.3096    4.3237 C   0  0  0  0  0  0  0  0  0  0  0  0
    0.9681    5.4593    4.1725 C   0  0  0  0  0  0  0  0  0  0  0  0
    0.2917    5.5649    2.9524 C   0  0  0  0  0  0  0  0  0  0  0  0
    1.0562    5.6752    1.7017 C   0  0  0  0  0  0  0  0  0  0  0  0
    0.9887    4.6579    0.7546 C   0  0  0  0  0  0  0  0  0  0  0  0
    1.7986    4.6674   -0.3632 C   0  0  0  0  0  0  0  0  0  0  0  0
    2.7095    5.6975   -0.5695 C   0  0  0  0  0  0  0  0  0  0  0  0
    3.8324    5.7938   -1.9222 S   0  0  0  0  0  0  0  0  0  0  0  0
    3.9409    4.0738   -2.5251 C   0  0  0  0  0  0  0  0  0  0  0  0
    4.5791    3.1352   -1.5183 C   0  0  0  0  0  0  0  0  0  0  0  0
    2.7335    6.7341    0.3653 C   0  0  0  0  0  0  0  0  0  0  0  0
    3.5842    7.7651    0.1827 F   0  0  0  0  0  0  0  0  0  0  0  0
    1.9365    6.7322    1.4886 C   0  0  0  0  0  0  0  0  0  0  0  0
   -1.0676    5.3281    2.9903 C   0  0  0  0  0  0  0  0  0  0  0  0
   -1.7836    5.0127    4.1736 C   0  0  0  0  0  0  0  0  0  0  0  0
   -1.1046    4.9839    5.4068 C   0  0  0  0  0  0  0  0  0  0  0  0
   -1.7750    4.6342    6.6659 C   0  0  0  0  0  0  0  0  0  0  0  0
   -1.6321    5.4486    7.7879 C   0  0  0  0  0  0  0  0  0  0  0  0
   -2.2668    5.1333    8.9696 C   0  0  0  0  0  0  0  0  0  0  0  0
   -3.0489    3.9854    9.0913 C   0  0  0  0  0  0  0  0  0  0  0  0
   -3.7731    3.6732   10.6732 S   0  0  0  0  0  0  0  0  0  0  0  0
   -5.3983    2.9173   10.2979 C   0  0  0  0  0  0  0  0  0  0  0  0
   -6.2583    3.8129    9.4291 C   0  0  0  0  0  0  0  0  0  0  0  0
   -3.1404    3.1563    7.9775 C   0  0  0  0  0  0  0  0  0  0  0  0
   -2.5323    3.4736    6.7798 C   0  0  0  0  0  0  0  0  0  0  0  0
   -3.8298    1.9940    8.0281 F   0  0  0  0  0  0  0  0  0  0  0  0
    0.2693    5.1944    5.3720 C   0  0  0  0  0  0  0  0  0  0  0  0
    1.3920    4.8683    6.6828 S   0  0  0  0  0  0  0  0  0  0  0  0
   -3.1079    4.5825    3.8732 C   0  0  0  0  0  0  0  0  0  0  0  0
   -3.3648    4.5114    2.5353 C   0  0  0  0  0  0  0  0  0  0  0  0
   -2.0544    5.1749    1.5706 S   0  0  0  0  0  0  0  0  0  0  0  0
   -4.3170    3.7151    1.8258 C   0  0  0  0  0  0  0  0  0  0  0  0
   -4.0634    3.2204    0.5799 C   0  0  0  0  0  0  0  0  0  0  0  0
   -4.9063    2.1540    0.2038 C   0  0  0  0  0  0  0  0  0  0  0  0
   -4.7606    1.3338   -0.9231 C   0  0  0  0  0  0  0  0  0  0  0  0
   -3.6021    1.4340   -1.8192 C   0  0  0  0  0  0  0  0  0  0  0  0
   -3.7463    1.4149   -3.2028 C   0  0  0  0  0  0  0  0  0  0  0  0
   -2.6444    1.3905   -4.0358 C   0  0  0  0  0  0  0  0  0  0  0  0
   -1.3558    1.3694   -3.5144 C   0  0  0  0  0  0  0  0  0  0  0  0
    0.1205    1.2491   -4.4757 S   0  0  0  0  0  0  0  0  0  0  0  0
   -0.4685    0.5253   -6.0420 C   0  0  0  0  0  0  0  0  0  0  0  0
   -1.0398   -0.8665   -5.8570 C   0  0  0  0  0  0  0  0  0  0  0  0
   -1.2248    1.4421   -2.1278 C   0  0  0  0  0  0  0  0  0  0  0  0
    0.0117    1.4722   -1.5875 F   0  0  0  0  0  0  0  0  0  0  0  0
   -2.3134    1.4671   -1.2861 C   0  0  0  0  0  0  0  0  0  0  0  0
   -5.6857    0.3134   -1.0571 C   0  0  0  0  0  0  0  0  0  0  0  0
   -6.7260    0.0713   -0.1254 C   0  0  0  0  0  0  0  0  0  0  0  0
   -6.8528    0.8882    1.0151 C   0  0  0  0  0  0  0  0  0  0  0  0
   -7.9157    0.6584    2.0005 C   0  0  0  0  0  0  0  0  0  0  0  0
   -7.6388    0.5701    3.3636 C   0  0  0  0  0  0  0  0  0  0  0  0
   -8.6557    0.3887    4.2752 C   0  0  0  0  0  0  0  0  0  0  0  0
   -9.9862    0.2831    3.8720 C   0  0  0  0  0  0  0  0  0  0  0  0
  -11.1867    0.0179    5.1416 S   0  0  0  0  0  0  0  0  0  0  0  0
  -12.6583    0.9576    4.5907 C   0  0  0  0  0  0  0  0  0  0  0  0
  -12.3504    2.4267    4.3821 C   0  0  0  0  0  0  0  0  0  0  0  0
  -10.2439    0.3415    2.5056 C   0  0  0  0  0  0  0  0  0  0  0  0
   -9.2371    0.5371    1.5822 C   0  0  0  0  0  0  0  0  0  0  0  0
  -11.5016    0.2113    2.0263 F   0  0  0  0  0  0  0  0  0  0  0  0
   -5.9095    1.8957    1.1691 C   0  0  0  0  0  0  0  0  0  0  0  0
   -5.7246    2.9612    2.5498 S   0  0  0  0  0  0  0  0  0  0  0  0
   -7.4279   -1.1277   -0.4311 C   0  0  0  0  0  0  0  0  0  0  0  0
   -6.9433   -1.7793   -1.5251 C   0  0  0  0  0  0  0  0  0  0  0  0
   -5.6201   -0.9138   -2.2864 S   0  0  0  0  0  0  0  0  0  0  0  0
   -7.2743   -3.0589   -2.0625 C   0  0  0  0  0  0  0  0  0  0  0  0
   -6.5435   -3.7173   -3.0058 C   0  0  0  0  0  0  0  0  0  0  0  0
   -7.0147   -5.0209   -3.2913 C   0  0  0  0  0  0  0  0  0  0  0  0
   -6.4691   -5.9498   -4.1928 C   0  0  0  0  0  0  0  0  0  0  0  0
   -5.2265   -5.6421   -4.9105 C   0  0  0  0  0  0  0  0  0  0  0  0
   -4.1205   -5.1272   -4.2311 C   0  0  0  0  0  0  0  0  0  0  0  0
   -2.9880   -4.7493   -4.9150 C   0  0  0  0  0  0  0  0  0  0  0  0
   -2.8900   -4.8933   -6.2989 C   0  0  0  0  0  0  0  0  0  0  0  0
   -1.3735   -4.3480   -7.0218 S   0  0  0  0  0  0  0  0  0  0  0  0
   -1.7681   -3.8761   -8.7552 C   0  0  0  0  0  0  0  0  0  0  0  0
   -1.3393   -4.9333   -9.7530 C   0  0  0  0  0  0  0  0  0  0  0  0
   -3.9701   -5.4733   -6.9537 C   0  0  0  0  0  0  0  0  0  0  0  0
   -3.9437   -5.6994   -8.2877 F   0  0  0  0  0  0  0  0  0  0  0  0
   -5.1256   -5.8269   -6.2839 C   0  0  0  0  0  0  0  0  0  0  0  0
   -7.1620   -7.1428   -4.3404 C   0  0  0  0  0  0  0  0  0  0  0  0
   -8.3463   -7.4411   -3.6226 C   0  0  0  0  0  0  0  0  0  0  0  0
   -8.8809   -6.5156   -2.7129 C   0  0  0  0  0  0  0  0  0  0  0  0
  -10.1251   -6.7849   -1.9811 C   0  0  0  0  0  0  0  0  0  0  0  0
  -11.2793   -7.1659   -2.6590 C   0  0  0  0  0  0  0  0  0  0  0  0
  -12.4620   -7.3976   -1.9838 C   0  0  0  0  0  0  0  0  0  0  0  0
  -12.5324   -7.2556   -0.6026 C   0  0  0  0  0  0  0  0  0  0  0  0
  -13.9638   -7.5453    0.3829 S   0  0  0  0  0  0  0  0  0  0  0  0
  -15.3430   -7.5100   -0.8139 C   0  0  0  0  0  0  0  0  0  0  0  0
  -15.5803   -6.1217   -1.3769 C   0  0  0  0  0  0  0  0  0  0  0  0
  -11.3642   -6.8821    0.0648 C   0  0  0  0  0  0  0  0  0  0  0  0
  -10.1809   -6.6427   -0.5966 C   0  0  0  0  0  0  0  0  0  0  0  0
  -11.3908   -6.7527    1.4053 F   0  0  0  0  0  0  0  0  0  0  0  0
   -8.1854   -5.3260   -2.5555 C   0  0  0  0  0  0  0  0  0  0  0  0
   -8.6318   -4.0086   -1.4951 S   0  0  0  0  0  0  0  0  0  0  0  0
   -8.8175   -8.7564   -3.9140 C   0  0  0  0  0  0  0  0  0  0  0  0
   -8.0426   -9.4077   -4.8041 C   0  0  0  0  0  0  0  0  0  0  0  0
   -6.6891   -8.4812   -5.3550 S   0  0  0  0  0  0  0  0  0  0  0  0
    0.9318   -1.4578   -9.6710 H   0  0  0  0  0  0  0  0  0  0  0  0
    0.9294   -2.9087   -7.4944 H   0  0  0  0  0  0  0  0  0  0  0  0
    2.5331   -4.5270   -6.4783 H   0  0  0  0  0  0  0  0  0  0  0  0
    1.2259   -6.4234   -5.6046 H   0  0  0  0  0  0  0  0  0  0  0  0
   -0.6402   -5.9936   -1.1258 H   0  0  0  0  0  0  0  0  0  0  0  0
   -0.7087   -7.7570   -1.2993 H   0  0  0  0  0  0  0  0  0  0  0  0
    1.8308   -6.0556   -1.5615 H   0  0  0  0  0  0  0  0  0  0  0  0
    1.7510   -7.8093   -1.7623 H   0  0  0  0  0  0  0  0  0  0  0  0
    1.4213   -7.0808   -0.1839 H   0  0  0  0  0  0  0  0  0  0  0  0
    1.2439   -2.1537   -3.1531 H   0  0  0  0  0  0  0  0  0  0  0  0
    5.3728    0.6823   -8.7736 H   0  0  0  0  0  0  0  0  0  0  0  0
    6.3900    2.7760   -9.5620 H   0  0  0  0  0  0  0  0  0  0  0  0
    5.8002    6.8097   -6.8258 H   0  0  0  0  0  0  0  0  0  0  0  0
    6.2033    7.5732   -8.3741 H   0  0  0  0  0  0  0  0  0  0  0  0
    3.7271    7.4831   -8.0778 H   0  0  0  0  0  0  0  0  0  0  0  0
    4.2264    6.4697   -9.4401 H   0  0  0  0  0  0  0  0  0  0  0  0
    3.7983    5.7299   -7.8941 H   0  0  0  0  0  0  0  0  0  0  0  0
    4.2855    2.6289   -5.1210 H   0  0  0  0  0  0  0  0  0  0  0  0
    6.0908    0.9676   -4.4287 H   0  0  0  0  0  0  0  0  0  0  0  0
   10.8268   -2.8135    0.9051 H   0  0  0  0  0  0  0  0  0  0  0  0
    9.0529   -2.9001   -1.0029 H   0  0  0  0  0  0  0  0  0  0  0  0
   13.2149   -0.1840    4.6828 H   0  0  0  0  0  0  0  0  0  0  0  0
   12.4329    1.2370    6.4428 H   0  0  0  0  0  0  0  0  0  0  0  0
    9.3289    0.5662    4.1815 H   0  0  0  0  0  0  0  0  0  0  0  0
    5.7922    2.4838    2.3159 H   0  0  0  0  0  0  0  0  0  0  0  0
    5.0017    0.8154    0.7004 H   0  0  0  0  0  0  0  0  0  0  0  0
    5.6102   -4.1010    1.5016 H   0  0  0  0  0  0  0  0  0  0  0  0
    6.9924   -3.1649    0.8786 H   0  0  0  0  0  0  0  0  0  0  0  0
    6.4381   -5.0923   -0.6343 H   0  0  0  0  0  0  0  0  0  0  0  0
    6.2136   -3.5342   -1.4481 H   0  0  0  0  0  0  0  0  0  0  0  0
    4.8137   -4.4306   -0.8590 H   0  0  0  0  0  0  0  0  0  0  0  0
    7.2756   -0.6821    4.7921 H   0  0  0  0  0  0  0  0  0  0  0  0
    8.5054    3.0735    9.3901 H   0  0  0  0  0  0  0  0  0  0  0  0
    9.0786    4.5943   11.2353 H   0  0  0  0  0  0  0  0  0  0  0  0
    9.9028    9.4196   11.8062 H   0  0  0  0  0  0  0  0  0  0  0  0
    8.8488    9.4033   10.3808 H   0  0  0  0  0  0  0  0  0  0  0  0
   10.5123    7.9503    9.1827 H   0  0  0  0  0  0  0  0  0  0  0  0
   11.2753    9.4487    9.7200 H   0  0  0  0  0  0  0  0  0  0  0  0
   11.5412    7.9476   10.6183 H   0  0  0  0  0  0  0  0  0  0  0  0
    7.1611    6.4305    7.0945 H   0  0  0  0  0  0  0  0  0  0  0  0
    5.0387    5.2336    7.4724 H   0  0  0  0  0  0  0  0  0  0  0  0
    3.0566    5.4004    3.5045 H   0  0  0  0  0  0  0  0  0  0  0  0
    0.3200    3.8253    0.9076 H   0  0  0  0  0  0  0  0  0  0  0  0
    1.7179    3.8557   -1.0676 H   0  0  0  0  0  0  0  0  0  0  0  0
    4.5680    4.1780   -3.4091 H   0  0  0  0  0  0  0  0  0  0  0  0
    2.9488    3.7409   -2.8293 H   0  0  0  0  0  0  0  0  0  0  0  0
    4.6584    2.1359   -1.9438 H   0  0  0  0  0  0  0  0  0  0  0  0
    3.9848    3.0764   -0.6086 H   0  0  0  0  0  0  0  0  0  0  0  0
    5.5769    3.4814   -1.2576 H   0  0  0  0  0  0  0  0  0  0  0  0
    2.0085    7.5477    2.1915 H   0  0  0  0  0  0  0  0  0  0  0  0
   -1.0384    6.3474    7.7217 H   0  0  0  0  0  0  0  0  0  0  0  0
   -2.1685    5.7758    9.8305 H   0  0  0  0  0  0  0  0  0  0  0  0
   -5.8415    2.7859   11.2852 H   0  0  0  0  0  0  0  0  0  0  0  0
   -5.2412    1.9397    9.8478 H   0  0  0  0  0  0  0  0  0  0  0  0
   -6.3766    4.7918    9.8891 H   0  0  0  0  0  0  0  0  0  0  0  0
   -5.8123    3.9451    8.4452 H   0  0  0  0  0  0  0  0  0  0  0  0
   -7.2413    3.3639    9.3018 H   0  0  0  0  0  0  0  0  0  0  0  0
   -2.6195    2.7808    5.9571 H   0  0  0  0  0  0  0  0  0  0  0  0
   -3.8163    4.2564    4.6131 H   0  0  0  0  0  0  0  0  0  0  0  0
   -3.2563    3.5743   -0.0347 H   0  0  0  0  0  0  0  0  0  0  0  0
   -4.7343    1.4270   -3.6368 H   0  0  0  0  0  0  0  0  0  0  0  0
   -2.8000    1.3869   -5.1024 H   0  0  0  0  0  0  0  0  0  0  0  0
    0.4265    0.5016   -6.6624 H   0  0  0  0  0  0  0  0  0  0  0  0
   -1.1828    1.2122   -6.4953 H   0  0  0  0  0  0  0  0  0  0  0  0
   -0.2902   -1.5342   -5.4401 H   0  0  0  0  0  0  0  0  0  0  0  0
   -1.3560   -1.2639   -6.8186 H   0  0  0  0  0  0  0  0  0  0  0  0
   -1.8987   -0.8556   -5.1889 H   0  0  0  0  0  0  0  0  0  0  0  0
   -2.1506    1.4679   -0.2198 H   0  0  0  0  0  0  0  0  0  0  0  0
   -6.6191    0.6320    3.7095 H   0  0  0  0  0  0  0  0  0  0  0  0
   -8.4368    0.3240    5.3296 H   0  0  0  0  0  0  0  0  0  0  0  0
  -13.3618    0.8166    5.4115 H   0  0  0  0  0  0  0  0  0  0  0  0
  -13.0628    0.4928    3.6945 H   0  0  0  0  0  0  0  0  0  0  0  0
  -11.6453    2.5643    3.5645 H   0  0  0  0  0  0  0  0  0  0  0  0
  -11.9216    2.8591    5.2838 H   0  0  0  0  0  0  0  0  0  0  0  0
  -13.2662    2.9614    4.1382 H   0  0  0  0  0  0  0  0  0  0  0  0
   -9.4982    0.6037    0.5370 H   0  0  0  0  0  0  0  0  0  0  0  0
   -8.2252   -1.5245    0.1718 H   0  0  0  0  0  0  0  0  0  0  0  0
   -5.6885   -3.2752   -3.4847 H   0  0  0  0  0  0  0  0  0  0  0  0
   -4.1492   -5.0281   -3.1572 H   0  0  0  0  0  0  0  0  0  0  0  0
   -2.1494   -4.3235   -4.3879 H   0  0  0  0  0  0  0  0  0  0  0  0
   -2.8326   -3.6647   -8.8113 H   0  0  0  0  0  0  0  0  0  0  0  0
   -1.2146   -2.9493   -8.9126 H   0  0  0  0  0  0  0  0  0  0  0  0
   -1.5441   -4.5868  -10.7640 H   0  0  0  0  0  0  0  0  0  0  0  0
   -1.8820   -5.8600   -9.5901 H   0  0  0  0  0  0  0  0  0  0  0  0
   -0.2737   -5.1309   -9.6592 H   0  0  0  0  0  0  0  0  0  0  0  0
   -5.9445   -6.2340   -6.8560 H   0  0  0  0  0  0  0  0  0  0  0  0
  -11.2570   -7.2629   -3.7343 H   0  0  0  0  0  0  0  0  0  0  0  0
  -13.3316   -7.6961   -2.5465 H   0  0  0  0  0  0  0  0  0  0  0  0
  -15.1545   -8.2497   -1.5910 H   0  0  0  0  0  0  0  0  0  0  0  0
  -16.1976   -7.8402   -0.2233 H   0  0  0  0  0  0  0  0  0  0  0  0
  -14.7095   -5.7670   -1.9243 H   0  0  0  0  0  0  0  0  0  0  0  0
  -16.4339   -6.1366   -2.0520 H   0  0  0  0  0  0  0  0  0  0  0  0
  -15.7859   -5.4213   -0.5709 H   0  0  0  0  0  0  0  0  0  0  0  0
   -9.3087   -6.3635   -0.0273 H   0  0  0  0  0  0  0  0  0  0  0  0
   -9.6875   -9.1865   -3.4520 H   0  0  0  0  0  0  0  0  0  0  0  0
   -8.1723  -10.4003   -5.1891 H   0  0  0  0  0  0  0  0  0  0  0  0
  1  2  2  0  0  0  0
  2  3  1  0  0  0  0
  3  4  2  0  0  0  0
  4  5  1  0  0  0  0
  5  6  2  0  0  0  0
  6  7  1  0  0  0  0
  7  8  2  0  0  0  0
  8  9  1  0  0  0  0
  9 10  1  0  0  0  0
 10 11  1  0  0  0  0
  8 12  1  0  0  0  0
 12 13  1  0  0  0  0
 12 14  2  0  0  0  0
  4 15  1  0  0  0  0
 15 16  2  0  0  0  0
 16 17  1  0  0  0  0
 17 18  1  0  0  0  0
 18 19  2  0  0  0  0
 19 20  1  0  0  0  0
 20 21  2  0  0  0  0
 21 22  1  0  0  0  0
 22 23  1  0  0  0  0
 23 24  1  0  0  0  0
 21 25  1  0  0  0  0
 25 26  2  0  0  0  0
 25 27  1  0  0  0  0
 17 28  2  0  0  0  0
 28 29  1  0  0  0  0
 16 30  1  0  0  0  0
 30 31  2  0  0  0  0
 31 32  1  0  0  0  0
 31 33  1  0  0  0  0
 33 34  3  0  0  0  0
 34 35  1  0  0  0  0
 35 36  1  0  0  0  0
 36 37  1  0  0  0  0
 37 38  2  0  0  0  0
 38 39  1  0  0  0  0
 37 40  1  0  0  0  0
 40 41  3  0  0  0  0
 41 42  1  0  0  0  0
 42 43  2  0  0  0  0
 43 44  1  0  0  0  0
 44 45  2  0  0  0  0
 45 46  1  0  0  0  0
 46 47  2  0  0  0  0
 47 48  1  0  0  0  0
 48 49  2  0  0  0  0
 49 50  1  0  0  0  0
 50 51  2  0  0  0  0
 51 52  1  0  0  0  0
 52 53  1  0  0  0  0
 53 54  1  0  0  0  0
 51 55  1  0  0  0  0
 55 56  1  0  0  0  0
 55 57  2  0  0  0  0
 47 58  1  0  0  0  0
 58 59  2  0  0  0  0
 59 60  1  0  0  0  0
 60 61  1  0  0  0  0
 61 62  2  0  0  0  0
 62 63  1  0  0  0  0
 63 64  2  0  0  0  0
 64 65  1  0  0  0  0
 65 66  1  0  0  0  0
 66 67  1  0  0  0  0
 64 68  1  0  0  0  0
 68 69  2  0  0  0  0
 68 70  1  0  0  0  0
 60 71  2  0  0  0  0
 71 72  1  0  0  0  0
 59 73  1  0  0  0  0
 73 74  2  0  0  0  0
 74 75  1  0  0  0  0
 74 76  1  0  0  0  0
 76 77  2  0  0  0  0
 77 78  1  0  0  0  0
 78 79  2  0  0  0  0
 79 80  1  0  0  0  0
 80 81  2  0  0  0  0
 81 82  1  0  0  0  0
 82 83  2  0  0  0  0
 83 84  1  0  0  0  0
 84 85  1  0  0  0  0
 85 86  1  0  0  0  0
 83 87  1  0  0  0  0
 87 88  1  0  0  0  0
 87 89  2  0  0  0  0
 79 90  1  0  0  0  0
 90 91  2  0  0  0  0
 91 92  1  0  0  0  0
 92 93  1  0  0  0  0
 93 94  2  0  0  0  0
 94 95  1  0  0  0  0
 95 96  2  0  0  0  0
 96 97  1  0  0  0  0
 97 98  1  0  0  0  0
 98 99  1  0  0  0  0
 96100  1  0  0  0  0
100101  2  0  0  0  0
100102  1  0  0  0  0
 92103  2  0  0  0  0
103104  1  0  0  0  0
 91105  1  0  0  0  0
105106  2  0  0  0  0
106107  1  0  0  0  0
106108  1  0  0  0  0
108109  2  0  0  0  0
109110  1  0  0  0  0
110111  2  0  0  0  0
111112  1  0  0  0  0
112113  2  0  0  0  0
113114  1  0  0  0  0
114115  2  0  0  0  0
115116  1  0  0  0  0
116117  1  0  0  0  0
117118  1  0  0  0  0
115119  1  0  0  0  0
119120  1  0  0  0  0
119121  2  0  0  0  0
111122  1  0  0  0  0
122123  2  0  0  0  0
123124  1  0  0  0  0
124125  1  0  0  0  0
125126  2  0  0  0  0
126127  1  0  0  0  0
127128  2  0  0  0  0
128129  1  0  0  0  0
129130  1  0  0  0  0
130131  1  0  0  0  0
128132  1  0  0  0  0
132133  2  0  0  0  0
132134  1  0  0  0  0
124135  2  0  0  0  0
135136  1  0  0  0  0
123137  1  0  0  0  0
137138  2  0  0  0  0
138139  1  0  0  0  0
138140  1  0  0  0  0
140141  2  0  0  0  0
141142  1  0  0  0  0
142143  2  0  0  0  0
143144  1  0  0  0  0
144145  2  0  0  0  0
145146  1  0  0  0  0
146147  2  0  0  0  0
147148  1  0  0  0  0
148149  1  0  0  0  0
149150  1  0  0  0  0
147151  1  0  0  0  0
151152  1  0  0  0  0
151153  2  0  0  0  0
143154  1  0  0  0  0
154155  2  0  0  0  0
155156  1  0  0  0  0
156157  1  0  0  0  0
157158  2  0  0  0  0
158159  1  0  0  0  0
159160  2  0  0  0  0
160161  1  0  0  0  0
161162  1  0  0  0  0
162163  1  0  0  0  0
160164  1  0  0  0  0
164165  2  0  0  0  0
164166  1  0  0  0  0
156167  2  0  0  0  0
167168  1  0  0  0  0
155169  1  0  0  0  0
169170  2  0  0  0  0
170171  1  0  0  0  0
 29  1  1  0  0  0  0
 39 35  2  0  0  0  0
 72 44  1  0  0  0  0
104 76  1  0  0  0  0
136108  1  0  0  0  0
168140  1  0  0  0  0
 28  3  1  0  0  0  0
 71 46  1  0  0  0  0
103 78  1  0  0  0  0
135110  1  0  0  0  0
167142  1  0  0  0  0
 14  5  1  0  0  0  0
 32 15  1  0  0  0  0
 57 48  1  0  0  0  0
 75 58  1  0  0  0  0
 89 80  1  0  0  0  0
107 90  1  0  0  0  0
121112  1  0  0  0  0
139122  1  0  0  0  0
153144  1  0  0  0  0
171154  1  0  0  0  0
 26 18  1  0  0  0  0
 69 61  1  0  0  0  0
101 93  1  0  0  0  0
133125  1  0  0  0  0
165157  1  0  0  0  0
  1172  1  0  0  0  0
  2173  1  0  0  0  0
  6174  1  0  0  0  0
  7175  1  0  0  0  0
 10176  1  0  0  0  0
 10177  1  0  0  0  0
 11178  1  0  0  0  0
 11179  1  0  0  0  0
 11180  1  0  0  0  0
 14181  1  0  0  0  0
 19182  1  0  0  0  0
 20183  1  0  0  0  0
 23184  1  0  0  0  0
 23185  1  0  0  0  0
 24186  1  0  0  0  0
 24187  1  0  0  0  0
 24188  1  0  0  0  0
 26189  1  0  0  0  0
 30190  1  0  0  0  0
 38191  1  0  0  0  0
 39192  1  0  0  0  0
 42193  1  0  0  0  0
 43194  1  0  0  0  0
 45195  1  0  0  0  0
 49196  1  0  0  0  0
 50197  1  0  0  0  0
 53198  1  0  0  0  0
 53199  1  0  0  0  0
 54200  1  0  0  0  0
 54201  1  0  0  0  0
 54202  1  0  0  0  0
 57203  1  0  0  0  0
 62204  1  0  0  0  0
 63205  1  0  0  0  0
 66206  1  0  0  0  0
 66207  1  0  0  0  0
 67208  1  0  0  0  0
 67209  1  0  0  0  0
 67210  1  0  0  0  0
 69211  1  0  0  0  0
 73212  1  0  0  0  0
 77213  1  0  0  0  0
 81214  1  0  0  0  0
 82215  1  0  0  0  0
 85216  1  0  0  0  0
 85217  1  0  0  0  0
 86218  1  0  0  0  0
 86219  1  0  0  0  0
 86220  1  0  0  0  0
 89221  1  0  0  0  0
 94222  1  0  0  0  0
 95223  1  0  0  0  0
 98224  1  0  0  0  0
 98225  1  0  0  0  0
 99226  1  0  0  0  0
 99227  1  0  0  0  0
 99228  1  0  0  0  0
101229  1  0  0  0  0
105230  1  0  0  0  0
109231  1  0  0  0  0
113232  1  0  0  0  0
114233  1  0  0  0  0
117234  1  0  0  0  0
117235  1  0  0  0  0
118236  1  0  0  0  0
118237  1  0  0  0  0
118238  1  0  0  0  0
121239  1  0  0  0  0
126240  1  0  0  0  0
127241  1  0  0  0  0
130242  1  0  0  0  0
130243  1  0  0  0  0
131244  1  0  0  0  0
131245  1  0  0  0  0
131246  1  0  0  0  0
133247  1  0  0  0  0
137248  1  0  0  0  0
141249  1  0  0  0  0
145250  1  0  0  0  0
146251  1  0  0  0  0
149252  1  0  0  0  0
149253  1  0  0  0  0
150254  1  0  0  0  0
150255  1  0  0  0  0
150256  1  0  0  0  0
153257  1  0  0  0  0
158258  1  0  0  0  0
159259  1  0  0  0  0
162260  1  0  0  0  0
162261  1  0  0  0  0
163262  1  0  0  0  0
163263  1  0  0  0  0
163264  1  0  0  0  0
165265  1  0  0  0  0
169266  1  0  0  0  0
170267  1  0  0  0  0
M  END
