266

C         -4.16570       -8.91110        9.74150
C         -3.65340       -7.67000        9.62030
C         -3.93990       -7.07120        8.35730
C         -3.53050       -5.81820        7.87770
C         -2.77780       -4.87650        8.71590
C         -1.60200       -4.28500        8.25820
C         -0.90620       -3.40020        9.05320
C         -1.35860       -3.05380       10.32550
S         -0.40290       -1.86470       11.21960
C         -0.49430       -2.41700       12.96270
C          0.02590       -3.82920       13.14000
C         -2.55100       -3.62780       10.75590
F         -3.08200       -3.31120       11.95850
C         -3.24430       -4.53560        9.98110
C         -3.88740       -5.50360        6.57500
C         -4.64360       -6.36870        5.74620
C         -5.04950       -7.62420        6.22450
C         -5.78740       -8.56690        5.37580
C         -5.32290       -8.89310        4.10190
C         -6.01090       -9.78790        3.31180
C         -7.18290      -10.39850        3.75600
S         -7.94040      -11.56800        2.66790
C         -9.73820      -11.30240        2.89090
C        -10.14410       -9.87540        2.58240
C         -7.61970      -10.08320        5.03900
C         -6.94850       -9.17790        5.83600
F         -8.72830      -10.65730        5.55620
C         -4.69070       -7.93890        7.52850
S         -5.02980       -9.44550        8.34150
C         -4.93100       -5.77670        4.48860
C         -4.41100       -4.52650        4.34170
S         -3.53060       -4.00010        5.76520
C         -4.49780       -3.66770        3.20670
C         -3.94560       -2.43080        3.05620
C         -4.20850       -1.84050        1.79510
C         -3.78990       -0.58590        1.32410
C         -2.79670        0.23080        2.03130
C         -1.59820       -0.34670        2.44440
C         -0.59350        0.41190        3.01390
C         -0.75680        1.77900        3.20160
S          0.42110        2.86830        3.92360
C          1.89010        1.83020        4.23270
C          1.79690        1.03480        5.52090
C         -1.96360        2.34500        2.78430
F         -2.15230        3.66850        2.95110
C         -2.96750        1.60290        2.20440
C         -4.24010       -0.21440        0.06700
C         -4.99060       -1.07130       -0.77420
C         -5.38360       -2.33810       -0.31440
C         -6.08910       -3.25830       -1.21510
C         -7.24040       -2.85850       -1.89120
C         -7.83050       -3.68740       -2.82250
C         -7.29410       -4.93810       -3.11160
S         -8.06560       -5.92610       -4.36670
C         -6.63530       -6.33480       -5.43840
C         -5.97470       -5.08980       -5.99640
C         -6.18290       -5.35050       -2.38350
C         -5.57660       -4.52860       -1.45550
F         -5.65010       -6.57380       -2.58440
C         -4.99820       -2.68170        0.97170
S         -5.38130       -4.17950        1.78020
C         -5.09790       -0.55720       -2.09350
C         -4.48170        0.64410       -2.25550
S         -3.79540        1.24960       -0.75920
C         -4.06580        1.29090       -3.46160
C         -3.67980        0.66270       -4.60820
C         -2.79700        1.43850       -5.40340
C         -1.99370        0.93870       -6.45300
C         -2.39690       -0.28880       -7.13710
C         -3.75200       -0.50590       -7.39870
C         -4.19730       -1.66340       -8.00270
C         -3.30380       -2.66220       -8.37430
S         -3.74480       -4.21150       -9.08780
C         -5.41120       -3.92340       -9.77790
C         -5.38680       -2.96200      -10.95020
C         -1.95150       -2.42660       -8.12770
F         -1.04820       -3.37190       -8.46380
C         -1.49350       -1.26990       -7.54020
C         -0.81050        1.64050       -6.65850
C         -0.58910        2.92510       -6.10230
C         -1.53620        3.54510       -5.26310
C         -1.29640        4.90880       -4.78400
C         -0.90770        5.89690       -5.69310
C         -0.61880        7.17390       -5.26760
C         -0.71270        7.53070       -3.92170
S         -0.30450        9.19460       -3.50160
C          0.44070        9.09410       -1.82630
C         -0.47860        9.61510       -0.74080
C         -1.15110        6.55220       -3.03560
C         -1.41860        5.26150       -3.44430
F         -1.34820        6.83760       -1.73330
C         -2.55840        2.71370       -4.83340
S         -3.54080        2.95880       -3.41180
C          0.76690        3.31870       -6.17080
C          1.59410        2.34600       -6.65690
S          0.67440        1.01930       -7.34910
C          2.93500        2.14540       -6.20250
C          3.51430        2.88670       -5.20970
C          4.48640        2.18190       -4.46520
C          5.03860        2.55930       -3.22820
C          4.64920        3.79880       -2.54540
C          5.59740        4.63100       -1.95820
C          5.22620        5.77530       -1.27800
C          3.88910        6.14130       -1.17380
S          3.27290        7.53930       -0.29930
C          4.73640        8.59930       -0.04980
C          5.24320        9.20410       -1.34480
C          2.95140        5.30310       -1.77740
F          1.64500        5.64080       -1.73860
C          3.30280        4.14460       -2.42950
C          5.84960        1.62250       -2.60780
C          6.13240        0.35280       -3.16590
C          5.60580       -0.01200       -4.41770
C          5.93930       -1.30700       -5.02140
C          4.96750       -2.16080       -5.53840
C          5.32020       -3.36620       -6.10470
C          6.65210       -3.76810       -6.19600
S          6.96470       -5.31000       -6.99970
C          8.39830       -6.02200       -6.11110
C          8.12100       -6.20110       -4.63210
C          7.61450       -2.89330       -5.69950
C          7.27340       -1.69540       -5.10640
F          8.93210       -3.18380       -5.78680
C          4.74670        0.89910       -5.01190
S          3.74790        0.60620       -6.41710
C          6.79460       -0.48810       -2.23680
C          6.98180        0.08050       -1.01360
S          6.47930        1.76110       -0.98760
C          7.57020       -0.57010        0.11750
S          8.94340       -1.58490       -0.20550
C          9.11470       -2.00130        1.43130
C          8.15290       -1.41170        2.21920
C          7.23840       -0.58900        1.46870
C          6.15100        0.03230        2.15140
C          6.05950       -0.14260        3.52320
C          6.99220       -0.92660        4.24880
C          8.01270       -1.55730        3.61940
O          5.05970        0.38750        4.26820
C          5.09500        0.82220        1.51370
C          4.75760        2.09100        1.86390
C          3.55840        2.56880        1.26090
C          2.91360        3.79270        1.49220
C          3.57880        4.86850        2.23100
C          4.90320        5.20030        1.93950
C          5.51770        6.25580        2.57480
C          4.85350        7.01450        3.53960
S          5.78340        8.32370        4.27820
C          4.55620        9.59520        4.75210
C          3.78810       10.12500        3.55820
C          3.55260        6.63620        3.85740
F          2.86370        7.27010        4.83090
C          2.91340        5.59870        3.20920
C          1.63200        3.93060        0.97040
C          1.03140        2.94240        0.15040
C          1.72920        1.76740       -0.17200
C          1.18270        0.82180       -1.15540
C          1.92330        0.51350       -2.29380
C          1.40060       -0.28360       -3.29250
C          0.12910       -0.83160       -3.16960
S         -0.64640       -1.84820       -4.38440
C          0.76740       -2.62460       -5.24600
C          1.58540       -3.50680       -4.32380
C         -0.58970       -0.53810       -2.01090
C         -0.09270        0.27810       -1.01860
F         -1.81780       -1.07680       -1.84970
C          2.96620        1.58940        0.43200
S          3.93270        0.12730        0.38630
C         -0.27200        3.33920       -0.27140
C         -0.63600        4.54300        0.21640
S          0.57300        5.29530        1.18360
H         -4.09580       -9.57340       10.58220
H         -3.07250       -7.18770       10.38520
H         -1.21800       -4.54230        7.28340
H          0.01120       -2.95490        8.70100
H         -1.51710       -2.31050       13.31690
H          0.13790       -1.69740       13.48310
H          0.03200       -4.08700       14.19710
H         -0.60560       -4.54450       12.61630
H          1.03910       -3.91460       12.75250
H         -4.17000       -4.94080       10.36020
H         -4.40700       -8.45250        3.73870
H         -5.64930      -10.03650        2.32610
H        -10.01960      -11.59930        3.89870
H        -10.18050      -11.99930        2.17880
H         -9.70080       -9.18250        3.29520
H        -11.22660       -9.78220        2.64160
H         -9.82250       -9.59430        1.58170
H         -7.34670       -8.95700        6.81390
H         -5.51820       -6.25380        3.72430
H         -3.38260       -1.94660        3.83470
H         -1.43730       -1.40310        2.28990
H          0.32210       -0.07740        3.30310
H          2.70280        2.55560        4.28910
H          2.03890        1.20010        3.35590
H          0.95710        0.34410        5.50080
H          2.71480        0.46900        5.66960
H          1.66300        1.70730        6.36440
H         -3.87950        2.09620        1.90790
H         -7.66860       -1.88890       -1.68580
H         -8.71280       -3.37170       -3.35750
H         -7.07480       -6.93760       -6.23260
H         -5.93660       -6.94760       -4.87330
H         -5.52620       -4.49680       -5.20070
H         -5.19100       -5.37070       -6.69760
H         -6.70790       -4.47370       -6.51370
H         -4.69410       -4.87920       -0.94400
H         -5.56800       -1.08960       -2.89990
H         -3.87220       -0.37850       -4.79230
H         -4.47150        0.25440       -7.13470
H         -5.25470       -1.78850       -8.17180
H         -5.72830       -4.91670      -10.09560
H         -6.07060       -3.58870       -8.97850
H         -6.38940       -2.85080      -11.35860
H         -4.73250       -3.34010      -11.73220
H         -5.02520       -1.98240      -10.64410
H         -0.43500       -1.16130       -7.38110
H         -0.83410        5.65340       -6.74260
H         -0.30750        7.92800       -5.97400
H          0.72980        8.06190       -1.65210
H          1.34000        9.70650       -1.89710
H          0.03250        9.55690        0.21790
H         -1.38480        9.01940       -0.68250
H         -0.75160       10.65030       -0.93430
H         -1.70150        4.54340       -2.69280
H          1.12210        4.22310       -5.71230
H          3.19580        3.88110       -4.96210
H          6.64540        4.38640       -2.04260
H          5.99240        6.38360       -0.82610
H          5.49700        8.02260        0.47420
H          4.36900        9.37570        0.62050
H          5.55470        8.43110       -2.04410
H          4.46140        9.79560       -1.81560
H          6.09370        9.85170       -1.14110
H          2.52140        3.51360       -2.82390
H          3.92590       -1.89340       -5.47100
H          4.56310       -4.02740       -6.49700
H          9.27350       -5.40200       -6.29120
H          8.53840       -6.98450       -6.60320
H          7.22650       -6.80180       -4.48110
H          8.96370       -6.70250       -4.16050
H          7.97800       -5.23920       -4.14360
H          8.06240       -1.05300       -4.74620
H          7.04150       -1.51510       -2.43850
H          9.90450       -2.65460        1.74340
H          6.83790       -1.00700        5.31270
H          8.71710       -2.17050        4.15870
H          4.46940        0.90830        3.70090
H          5.35130        2.68460        2.53810
H          5.43530        4.64730        1.18000
H          6.53910        6.51660        2.33960
H          5.17230       10.37550        5.19980
H          3.89660        9.18530        5.51300
H          3.10630       10.90850        3.88230
H          4.47270       10.54110        2.82120
H          3.20280        9.33590        3.08980
H          1.90520        5.35280        3.50300
H          2.91530        0.92430       -2.41170
H          1.98830       -0.46670       -4.17760
H          1.36490       -1.84320       -5.71570
H          0.29370       -3.21880       -6.02670
H          2.05400       -2.92350       -3.53300
H          2.36440       -4.01130       -4.89150
H          0.94850       -4.25960       -3.86490
H         -0.68860        0.46460       -0.13770
H         -0.90160        2.73750       -0.90160
H         -1.56420        5.05920        0.07320
