
  xtb     02282215423D
 energy: -171.284903067669 gnorm: 0.000454884939 xtb: 6.4.1 (unknown)
 88101  0     0  0            999 V2000
    1.3879   -4.8774   -4.1550 C   0  0  0  0  0  0  0  0  0  0  0  0
    2.0193   -5.7867   -3.3600 C   0  0  0  0  0  0  0  0  0  0  0  0
    3.1998   -6.4130   -3.5675 O   0  0  0  0  0  0  0  0  0  0  0  0
    1.1705   -6.1758   -1.8828 S   0  0  0  0  0  0  0  0  0  0  0  0
   -0.0946   -5.0799   -2.3369 C   0  0  0  0  0  0  0  0  0  0  0  0
    0.1721   -4.4658   -3.5680 C   0  0  0  0  0  0  0  0  0  0  0  0
   -0.8432   -3.6024   -3.8759 N   0  0  0  0  0  0  0  0  0  0  0  0
   -1.7567   -3.6511   -2.8538 C   0  0  0  0  0  0  0  0  0  0  0  0
   -1.3181   -4.5696   -1.8831 C   0  0  0  0  0  0  0  0  0  0  0  0
   -2.3991   -4.6396   -0.5435 S   0  0  0  0  0  0  0  0  0  0  0  0
   -3.4376   -3.4329   -1.2931 C   0  0  0  0  0  0  0  0  0  0  0  0
   -2.9588   -3.0206   -2.5203 C   0  0  0  0  0  0  0  0  0  0  0  0
   -4.7173   -3.0867   -0.7645 C   0  0  0  0  0  0  0  0  0  0  0  0
   -5.9081   -2.5919   -1.9405 S   0  0  0  0  0  0  0  0  0  0  0  0
   -7.1629   -2.5745   -0.7931 C   0  0  0  0  0  0  0  0  0  0  0  0
   -6.7167   -2.9278    0.4593 C   0  0  0  0  0  0  0  0  0  0  0  0
   -5.2983   -3.1849    0.5029 C   0  0  0  0  0  0  0  0  0  0  0  0
   -4.7012   -3.4569    1.7635 C   0  0  0  0  0  0  0  0  0  0  0  0
   -5.5180   -3.6061    2.8674 C   0  0  0  0  0  0  0  0  0  0  0  0
   -6.9212   -3.4377    2.7860 C   0  0  0  0  0  0  0  0  0  0  0  0
   -7.5113   -3.0689    1.6202 C   0  0  0  0  0  0  0  0  0  0  0  0
   -4.9391   -3.8591    4.0736 O   0  0  0  0  0  0  0  0  0  0  0  0
   -3.2519   -3.4698    2.0084 C   0  0  0  0  0  0  0  0  0  0  0  0
   -2.5738   -4.5189    2.5686 C   0  0  0  0  0  0  0  0  0  0  0  0
   -3.0726   -5.7531    2.7565 O   0  0  0  0  0  0  0  0  0  0  0  0
   -0.9021   -4.1611    2.9696 S   0  0  0  0  0  0  0  0  0  0  0  0
   -1.1263   -2.5264    2.4514 C   0  0  0  0  0  0  0  0  0  0  0  0
   -2.4128   -2.3271    1.9368 C   0  0  0  0  0  0  0  0  0  0  0  0
   -2.5604   -1.0142    1.5863 N   0  0  0  0  0  0  0  0  0  0  0  0
   -1.3932   -0.3628    1.8938 C   0  0  0  0  0  0  0  0  0  0  0  0
   -0.4816   -1.2842    2.4355 C   0  0  0  0  0  0  0  0  0  0  0  0
    0.9921   -0.5211    2.8939 S   0  0  0  0  0  0  0  0  0  0  0  0
    0.3908    1.0277    2.3032 C   0  0  0  0  0  0  0  0  0  0  0  0
   -0.8964    0.9478    1.8388 C   0  0  0  0  0  0  0  0  0  0  0  0
    1.1854    2.2218    2.4142 C   0  0  0  0  0  0  0  0  0  0  0  0
    0.4890    3.5724    3.2581 S   0  0  0  0  0  0  0  0  0  0  0  0
    1.8784    4.5309    3.0304 C   0  0  0  0  0  0  0  0  0  0  0  0
    2.8613    3.8605    2.3404 C   0  0  0  0  0  0  0  0  0  0  0  0
    2.4623    2.5305    1.9632 C   0  0  0  0  0  0  0  0  0  0  0  0
    3.3534    1.7392    1.1740 C   0  0  0  0  0  0  0  0  0  0  0  0
    4.6197    2.2293    0.9289 C   0  0  0  0  0  0  0  0  0  0  0  0
    5.0084    3.5302    1.3362 C   0  0  0  0  0  0  0  0  0  0  0  0
    4.1481    4.3426    1.9981 C   0  0  0  0  0  0  0  0  0  0  0  0
    5.5503    1.5276    0.2292 O   0  0  0  0  0  0  0  0  0  0  0  0
    2.9177    0.4641    0.6178 C   0  0  0  0  0  0  0  0  0  0  0  0
    3.7487   -1.0082    1.0357 S   0  0  0  0  0  0  0  0  0  0  0  0
    2.5979   -1.9760    0.2349 C   0  0  0  0  0  0  0  0  0  0  0  0
    1.6066   -1.2201   -0.3424 C   0  0  0  0  0  0  0  0  0  0  0  0
    1.8131    0.1940   -0.1737 C   0  0  0  0  0  0  0  0  0  0  0  0
    0.9051    1.1177   -0.7865 C   0  0  0  0  0  0  0  0  0  0  0  0
   -0.2280    0.5994   -1.3817 C   0  0  0  0  0  0  0  0  0  0  0  0
   -0.4628   -0.7978   -1.4550 C   0  0  0  0  0  0  0  0  0  0  0  0
    0.4386   -1.6933   -0.9845 C   0  0  0  0  0  0  0  0  0  0  0  0
   -1.1784    1.3713   -1.9714 O   0  0  0  0  0  0  0  0  0  0  0  0
    1.1821    2.5468   -0.7990 C   0  0  0  0  0  0  0  0  0  0  0  0
    0.0170    3.7099   -0.2339 S   0  0  0  0  0  0  0  0  0  0  0  0
    1.0615    5.0265   -0.5227 C   0  0  0  0  0  0  0  0  0  0  0  0
    2.2623    4.6198   -1.0506 C   0  0  0  0  0  0  0  0  0  0  0  0
    2.3295    3.1952   -1.2276 C   0  0  0  0  0  0  0  0  0  0  0  0
    3.4771    2.6252   -1.8269 C   0  0  0  0  0  0  0  0  0  0  0  0
    4.5182    3.4334   -2.1829 C   0  0  0  0  0  0  0  0  0  0  0  0
    4.4610    4.8409   -1.9750 C   0  0  0  0  0  0  0  0  0  0  0  0
    3.3668    5.4241   -1.4286 C   0  0  0  0  0  0  0  0  0  0  0  0
    5.6566    2.9640   -2.7544 O   0  0  0  0  0  0  0  0  0  0  0  0
    1.7736   -4.5290   -5.0963 H   0  0  0  0  0  0  0  0  0  0  0  0
    3.5727   -6.1419   -4.4146 H   0  0  0  0  0  0  0  0  0  0  0  0
   -0.8984   -3.0161   -4.6898 H   0  0  0  0  0  0  0  0  0  0  0  0
   -3.4661   -2.2946   -3.1305 H   0  0  0  0  0  0  0  0  0  0  0  0
   -8.1606   -2.3195   -1.0882 H   0  0  0  0  0  0  0  0  0  0  0  0
   -7.5099   -3.5653    3.6851 H   0  0  0  0  0  0  0  0  0  0  0  0
   -8.5730   -2.8875    1.5572 H   0  0  0  0  0  0  0  0  0  0  0  0
   -5.6246   -3.9618    4.7443 H   0  0  0  0  0  0  0  0  0  0  0  0
   -2.4227   -6.3129    3.1959 H   0  0  0  0  0  0  0  0  0  0  0  0
   -3.3813   -0.6027    1.1781 H   0  0  0  0  0  0  0  0  0  0  0  0
   -1.4312    1.7971    1.4533 H   0  0  0  0  0  0  0  0  0  0  0  0
    1.9133    5.5287    3.4192 H   0  0  0  0  0  0  0  0  0  0  0  0
    6.0020    3.8502    1.0668 H   0  0  0  0  0  0  0  0  0  0  0  0
    4.4259    5.3461    2.2800 H   0  0  0  0  0  0  0  0  0  0  0  0
    5.2169    0.6356    0.0553 H   0  0  0  0  0  0  0  0  0  0  0  0
    2.6878   -3.0432    0.2538 H   0  0  0  0  0  0  0  0  0  0  0  0
   -1.3814   -1.1116   -1.9233 H   0  0  0  0  0  0  0  0  0  0  0  0
    0.2771   -2.7554   -1.0602 H   0  0  0  0  0  0  0  0  0  0  0  0
   -0.9414    2.3062   -1.8940 H   0  0  0  0  0  0  0  0  0  0  0  0
    0.7350    6.0202   -0.2921 H   0  0  0  0  0  0  0  0  0  0  0  0
    3.5149    1.5571   -1.9925 H   0  0  0  0  0  0  0  0  0  0  0  0
    5.3213    5.4175   -2.2750 H   0  0  0  0  0  0  0  0  0  0  0  0
    3.3149    6.4914   -1.2781 H   0  0  0  0  0  0  0  0  0  0  0  0
    5.6537    1.9996   -2.7515 H   0  0  0  0  0  0  0  0  0  0  0  0
  1  2  2  0  0  0  0
  2  3  1  0  0  0  0
  2  4  1  0  0  0  0
  4  5  1  0  0  0  0
  5  6  2  0  0  0  0
  6  7  1  0  0  0  0
  7  8  1  0  0  0  0
  8  9  2  0  0  0  0
  9 10  1  0  0  0  0
 10 11  1  0  0  0  0
 11 12  2  0  0  0  0
 11 13  1  0  0  0  0
 13 14  1  0  0  0  0
 14 15  1  0  0  0  0
 15 16  2  0  0  0  0
 16 17  1  0  0  0  0
 17 18  1  0  0  0  0
 18 19  2  0  0  0  0
 19 20  1  0  0  0  0
 20 21  2  0  0  0  0
 19 22  1  0  0  0  0
 18 23  1  0  0  0  0
 23 24  2  0  0  0  0
 24 25  1  0  0  0  0
 24 26  1  0  0  0  0
 26 27  1  0  0  0  0
 27 28  2  0  0  0  0
 28 29  1  0  0  0  0
 29 30  1  0  0  0  0
 30 31  2  0  0  0  0
 31 32  1  0  0  0  0
 32 33  1  0  0  0  0
 33 34  2  0  0  0  0
 33 35  1  0  0  0  0
 35 36  1  0  0  0  0
 36 37  1  0  0  0  0
 37 38  2  0  0  0  0
 38 39  1  0  0  0  0
 39 40  1  0  0  0  0
 40 41  2  0  0  0  0
 41 42  1  0  0  0  0
 42 43  2  0  0  0  0
 41 44  1  0  0  0  0
 40 45  1  0  0  0  0
 45 46  1  0  0  0  0
 46 47  1  0  0  0  0
 47 48  2  0  0  0  0
 48 49  1  0  0  0  0
 49 50  1  0  0  0  0
 50 51  2  0  0  0  0
 51 52  1  0  0  0  0
 52 53  2  0  0  0  0
 51 54  1  0  0  0  0
 50 55  1  0  0  0  0
 55 56  1  0  0  0  0
 56 57  1  0  0  0  0
 57 58  2  0  0  0  0
 58 59  1  0  0  0  0
 59 60  1  0  0  0  0
 60 61  2  0  0  0  0
 61 62  1  0  0  0  0
 62 63  2  0  0  0  0
 61 64  1  0  0  0  0
  6  1  1  0  0  0  0
 12  8  1  0  0  0  0
 17 13  2  0  0  0  0
 28 23  1  0  0  0  0
 34 30  1  0  0  0  0
 39 35  2  0  0  0  0
 49 45  2  0  0  0  0
 59 55  2  0  0  0  0
  9  5  1  0  0  0  0
 21 16  1  0  0  0  0
 31 27  1  0  0  0  0
 43 38  1  0  0  0  0
 53 48  1  0  0  0  0
 63 58  1  0  0  0  0
  1 65  1  0  0  0  0
  3 66  1  0  0  0  0
  7 67  1  0  0  0  0
 12 68  1  0  0  0  0
 15 69  1  0  0  0  0
 20 70  1  0  0  0  0
 21 71  1  0  0  0  0
 22 72  1  0  0  0  0
 25 73  1  0  0  0  0
 29 74  1  0  0  0  0
 34 75  1  0  0  0  0
 37 76  1  0  0  0  0
 42 77  1  0  0  0  0
 43 78  1  0  0  0  0
 44 79  1  0  0  0  0
 47 80  1  0  0  0  0
 52 81  1  0  0  0  0
 53 82  1  0  0  0  0
 54 83  1  0  0  0  0
 57 84  1  0  0  0  0
 60 85  1  0  0  0  0
 62 86  1  0  0  0  0
 63 87  1  0  0  0  0
 64 88  1  0  0  0  0
M  END
