191

C          8.39270       -3.56310        8.63400
C          7.24480       -2.86160        8.54510
C          6.40420       -3.30700        7.48200
C          5.12730       -2.84230        7.13080
C          4.52360       -1.66440        7.76500
C          5.24600       -0.47700        7.88100
C          4.65890        0.65450        8.40490
C          3.33520        0.64880        8.83930
S          2.68550        2.14950        9.51820
C          1.02930        2.27250        8.74710
C          1.11370        2.29260        7.23390
C          2.63660       -0.55080        8.74900
F          1.36240       -0.64370        9.18800
C          3.20650       -1.68710        8.21150
C          4.48660       -3.51740        6.10380
C          5.06960       -4.58490        5.38120
C          6.34670       -5.04620        5.73170
C          6.96700       -6.18810        5.04990
C          8.26730       -6.11820        4.55350
C          8.83700       -7.20420        3.92580
C          8.14910       -8.40920        3.78420
S          9.02550       -9.73860        3.01780
C          7.75330      -10.67690        2.09390
C          7.03170       -9.81430        1.07840
C          6.86330       -8.47300        4.31260
C          6.26910       -7.38410        4.91710
F          6.14240       -9.61640        4.26080
C          6.98140       -4.39090        6.77960
S          8.54120       -4.80770        7.44070
C          4.23700       -5.02740        4.31720
C          3.04440       -4.37840        4.23640
S          2.90460       -3.13000        5.47860
C          2.01640       -4.55150        3.25720
S          2.46650       -4.88670        1.60470
C          0.82540       -4.81770        1.11400
C         -0.02330       -4.57970        2.14270
C          0.63670       -4.43820        3.39430
N          0.06390       -4.22440        4.62220
C         -1.23730       -4.29670        5.05640
C         -2.33390       -4.70280        4.39440
C         -3.64100       -4.72840        4.96790
S         -3.93430       -4.53670        6.67390
C         -5.62010       -4.80160        6.45840
C         -5.95310       -5.00670        5.16130
C         -4.83070       -4.95540        4.29510
N         -4.88570       -5.06840        2.92130
C         -5.87420       -5.64380        2.19450
C         -5.89370       -5.67410        0.84490
C         -6.88720       -6.36110        0.08830
S         -8.14610       -7.27980        0.87230
C         -8.79270       -7.78100       -0.64110
C         -8.09920       -7.27530       -1.68820
C         -7.00700       -6.46080       -1.28860
N         -6.15720       -5.81000       -2.17320
C         -6.05610       -6.09880       -3.49210
C         -5.44770       -5.36770       -4.45310
C         -4.77740       -4.11130       -4.34050
C         -4.12620       -3.49520       -3.30750
C         -3.60510       -2.21510       -3.63090
C         -2.88690       -1.32750       -2.81190
C         -2.56110       -1.58100       -1.40260
C         -1.25580       -1.40030       -0.95010
C         -0.94270       -1.45580        0.39310
C         -1.93330       -1.69180        1.33980
S         -1.69910       -1.65230        3.08440
C         -0.00540       -0.98460        3.26740
C          0.23770       -0.66490        4.72970
C         -3.21890       -1.95710        0.86530
F         -4.19140       -2.26600        1.75550
C         -3.54530       -1.90360       -0.47110
C         -2.50160       -0.12090       -3.38110
C         -2.81370        0.24260       -4.71020
C         -3.52270       -0.64500       -5.53610
C         -3.86860       -0.23920       -6.90450
C         -3.52410       -1.00730       -8.01370
C         -3.76270       -0.53920       -9.28880
C         -4.37190        0.69520       -9.51110
S         -4.60590        1.19660      -11.19010
C         -4.34490        3.01110      -11.17580
C         -2.98640        3.40080      -10.62900
C         -4.78130        1.41370       -8.39200
C         -4.52090        0.97270       -7.11160
F         -5.44750        2.58390       -8.51910
C         -3.87670       -1.86030       -4.97970
S         -4.75520       -3.12040       -5.79590
C         -2.33120        1.53250       -5.03680
C         -1.71400        2.16550       -4.00130
S         -1.66290        1.17350       -2.55550
C         -1.18370        3.48710       -4.01430
C         -0.60170        4.18560       -3.00090
C         -0.23540        5.50910       -3.36200
C          0.39710        6.48230       -2.57210
C          0.66290        6.23010       -1.15130
C         -0.35550        5.76200       -0.32480
C         -0.12880        5.48830        1.00930
C          1.13310        5.66270        1.56550
S          1.56510        5.33760        3.24290
C          0.13340        4.41570        3.90370
C          0.05640        2.99980        3.36390
C          2.13830        6.15710        0.73200
F          3.37090        6.35080        1.24250
C          1.92290        6.44350       -0.59760
C          0.71830        7.67900       -3.19820
C          0.40920        7.95530       -4.55310
C         -0.24460        6.99290       -5.33440
C         -0.58850        7.19680       -6.74790
C         -1.87970        6.93540       -7.20460
C         -2.18970        7.04990       -8.54180
C         -1.22690        7.41620       -9.48040
S         -1.72640        7.42760      -11.17820
C         -0.86900        8.87540      -11.89750
C         -1.22270       10.16020      -11.17640
C          0.05760        7.67280       -9.01110
C          0.37700        7.58340       -7.67050
F          1.05340        8.00880       -9.86190
C         -0.54920        5.79130       -4.71280
S         -1.30610        4.42740       -5.49000
C          0.79280        9.27950       -4.91990
C          1.36560        9.95990       -3.90680
S          1.47990        9.05270       -2.43760
H          9.18970       -3.43530        9.34010
H          6.97670       -2.06720        9.21780
H          6.26320       -0.43510        7.52260
H          5.21650        1.57520        8.47870
H          0.40690        1.45730        9.10920
H          0.64130        3.21480        9.13330
H          1.51840        1.35440        6.85830
H          0.11900        2.43030        6.81410
H          1.75590        3.10460        6.89820
H          2.62000       -2.59200        8.17820
H          8.82390       -5.19780        4.63780
H          9.83880       -7.14150        3.53040
H          7.06720      -11.13790        2.80070
H          8.33410      -11.45800        1.60290
H          7.74300       -9.34200        0.40400
H          6.35050      -10.42990        0.49450
H          6.45250       -9.03550        1.57040
H          5.27360       -7.49480        5.31920
H          4.51670       -5.80470        3.62930
H          0.57860       -4.95410        0.08000
H         -1.07850       -4.46340        1.99740
H          0.73940       -4.06220        5.35630
H         -1.34880       -3.97400        6.08340
H         -2.27130       -5.07050        3.38380
H         -6.26640       -4.77390        7.31230
H         -6.96160       -5.16590        4.82630
H         -4.12800       -4.64140        2.40960
H         -6.65760       -6.12590        2.76010
H         -5.10080       -5.18650        0.29230
H         -9.65870       -8.41070       -0.65960
H         -8.37120       -7.45750       -2.71170
H         -5.70110       -4.97500       -1.83800
H         -6.53770       -7.01990       -3.78540
H         -5.53850       -5.73650       -5.46440
H         -3.95230       -3.95680       -2.35110
H         -0.46930       -1.20670       -1.66300
H          0.07820       -1.30130        0.70030
H          0.69840       -1.73830        2.91410
H          0.06480       -0.08580        2.65500
H          1.25710       -0.30850        4.86130
H          0.10150       -1.55100        5.34370
H         -0.45330        0.10040        5.07440
H         -4.57010       -2.05900       -0.77150
H         -3.03220       -1.95750       -7.87440
H         -3.46580       -1.12110      -10.14740
H         -4.43130        3.27540      -12.22980
H         -5.15680        3.48140      -10.62590
H         -2.90850        3.16830       -9.56860
H         -2.19600        2.87240      -11.15780
H         -2.83420        4.47110      -10.75670
H         -4.85390        1.57300       -6.27860
H         -2.43110        1.98130       -6.00880
H         -0.42610        3.75770       -2.03020
H         -1.34810        5.62910       -0.72790
H         -0.95120        5.14050        1.61280
H         -0.77200        4.98770        3.70620
H          0.30970        4.41020        4.97910
H         -0.80500        2.48800        3.78970
H          0.95720        2.45060        3.62840
H         -0.04200        2.99990        2.28020
H          2.74360        6.80570       -1.19600
H         -2.65000        6.65780       -6.50220
H         -3.19120        6.84810       -8.88830
H         -1.22740        8.89030      -12.92680
H          0.20250        8.68820      -11.89780
H         -2.30020       10.31180      -11.17100
H         -0.75260       11.00310      -11.67900
H         -0.87210       10.13630      -10.14610
H          1.39490        7.77210       -7.36540
H          0.62570        9.69220       -5.89820
H          1.74220       10.96410       -3.91680
