
  xtb     03072217443D
 energy: -327.707453331259 gnorm: 0.000176342346 xtb: 6.4.1 (unknown)
191208  0     0  0            999 V2000
    8.3927   -3.5631    8.6340 C   0  0  0  0  0  0  0  0  0  0  0  0
    7.2448   -2.8616    8.5451 C   0  0  0  0  0  0  0  0  0  0  0  0
    6.4042   -3.3070    7.4820 C   0  0  0  0  0  0  0  0  0  0  0  0
    5.1273   -2.8423    7.1308 C   0  0  0  0  0  0  0  0  0  0  0  0
    4.5236   -1.6644    7.7650 C   0  0  0  0  0  0  0  0  0  0  0  0
    5.2460   -0.4770    7.8810 C   0  0  0  0  0  0  0  0  0  0  0  0
    4.6589    0.6545    8.4049 C   0  0  0  0  0  0  0  0  0  0  0  0
    3.3352    0.6488    8.8393 C   0  0  0  0  0  0  0  0  0  0  0  0
    2.6855    2.1495    9.5182 S   0  0  0  0  0  0  0  0  0  0  0  0
    1.0293    2.2725    8.7471 C   0  0  0  0  0  0  0  0  0  0  0  0
    1.1137    2.2926    7.2339 C   0  0  0  0  0  0  0  0  0  0  0  0
    2.6366   -0.5508    8.7490 C   0  0  0  0  0  0  0  0  0  0  0  0
    1.3624   -0.6437    9.1880 F   0  0  0  0  0  0  0  0  0  0  0  0
    3.2065   -1.6871    8.2115 C   0  0  0  0  0  0  0  0  0  0  0  0
    4.4866   -3.5174    6.1038 C   0  0  0  0  0  0  0  0  0  0  0  0
    5.0696   -4.5849    5.3812 C   0  0  0  0  0  0  0  0  0  0  0  0
    6.3467   -5.0462    5.7317 C   0  0  0  0  0  0  0  0  0  0  0  0
    6.9670   -6.1881    5.0499 C   0  0  0  0  0  0  0  0  0  0  0  0
    8.2673   -6.1182    4.5535 C   0  0  0  0  0  0  0  0  0  0  0  0
    8.8370   -7.2042    3.9258 C   0  0  0  0  0  0  0  0  0  0  0  0
    8.1491   -8.4092    3.7842 C   0  0  0  0  0  0  0  0  0  0  0  0
    9.0255   -9.7386    3.0178 S   0  0  0  0  0  0  0  0  0  0  0  0
    7.7533  -10.6769    2.0939 C   0  0  0  0  0  0  0  0  0  0  0  0
    7.0317   -9.8143    1.0784 C   0  0  0  0  0  0  0  0  0  0  0  0
    6.8633   -8.4730    4.3126 C   0  0  0  0  0  0  0  0  0  0  0  0
    6.2691   -7.3841    4.9171 C   0  0  0  0  0  0  0  0  0  0  0  0
    6.1424   -9.6164    4.2608 F   0  0  0  0  0  0  0  0  0  0  0  0
    6.9814   -4.3909    6.7796 C   0  0  0  0  0  0  0  0  0  0  0  0
    8.5412   -4.8077    7.4407 S   0  0  0  0  0  0  0  0  0  0  0  0
    4.2370   -5.0274    4.3172 C   0  0  0  0  0  0  0  0  0  0  0  0
    3.0444   -4.3784    4.2364 C   0  0  0  0  0  0  0  0  0  0  0  0
    2.9046   -3.1300    5.4786 S   0  0  0  0  0  0  0  0  0  0  0  0
    2.0164   -4.5515    3.2572 C   0  0  0  0  0  0  0  0  0  0  0  0
    2.4665   -4.8867    1.6047 S   0  0  0  0  0  0  0  0  0  0  0  0
    0.8254   -4.8177    1.1140 C   0  0  0  0  0  0  0  0  0  0  0  0
   -0.0233   -4.5797    2.1427 C   0  0  0  0  0  0  0  0  0  0  0  0
    0.6367   -4.4382    3.3943 C   0  0  0  0  0  0  0  0  0  0  0  0
    0.0639   -4.2244    4.6222 N   0  0  0  0  0  0  0  0  0  0  0  0
   -1.2373   -4.2967    5.0564 C   0  0  0  0  0  0  0  0  0  0  0  0
   -2.3339   -4.7028    4.3944 C   0  0  0  0  0  0  0  0  0  0  0  0
   -3.6410   -4.7284    4.9679 C   0  0  0  0  0  0  0  0  0  0  0  0
   -3.9343   -4.5367    6.6739 S   0  0  0  0  0  0  0  0  0  0  0  0
   -5.6201   -4.8016    6.4584 C   0  0  0  0  0  0  0  0  0  0  0  0
   -5.9531   -5.0067    5.1613 C   0  0  0  0  0  0  0  0  0  0  0  0
   -4.8307   -4.9554    4.2951 C   0  0  0  0  0  0  0  0  0  0  0  0
   -4.8857   -5.0684    2.9213 N   0  0  0  0  0  0  0  0  0  0  0  0
   -5.8742   -5.6438    2.1945 C   0  0  0  0  0  0  0  0  0  0  0  0
   -5.8937   -5.6741    0.8449 C   0  0  0  0  0  0  0  0  0  0  0  0
   -6.8872   -6.3611    0.0883 C   0  0  0  0  0  0  0  0  0  0  0  0
   -8.1461   -7.2798    0.8723 S   0  0  0  0  0  0  0  0  0  0  0  0
   -8.7927   -7.7810   -0.6411 C   0  0  0  0  0  0  0  0  0  0  0  0
   -8.0992   -7.2753   -1.6882 C   0  0  0  0  0  0  0  0  0  0  0  0
   -7.0070   -6.4608   -1.2886 C   0  0  0  0  0  0  0  0  0  0  0  0
   -6.1572   -5.8100   -2.1732 N   0  0  0  0  0  0  0  0  0  0  0  0
   -6.0561   -6.0988   -3.4921 C   0  0  0  0  0  0  0  0  0  0  0  0
   -5.4477   -5.3677   -4.4531 C   0  0  0  0  0  0  0  0  0  0  0  0
   -4.7774   -4.1113   -4.3405 C   0  0  0  0  0  0  0  0  0  0  0  0
   -4.1262   -3.4952   -3.3075 C   0  0  0  0  0  0  0  0  0  0  0  0
   -3.6051   -2.2151   -3.6309 C   0  0  0  0  0  0  0  0  0  0  0  0
   -2.8869   -1.3275   -2.8119 C   0  0  0  0  0  0  0  0  0  0  0  0
   -2.5611   -1.5810   -1.4026 C   0  0  0  0  0  0  0  0  0  0  0  0
   -1.2558   -1.4003   -0.9501 C   0  0  0  0  0  0  0  0  0  0  0  0
   -0.9427   -1.4558    0.3931 C   0  0  0  0  0  0  0  0  0  0  0  0
   -1.9333   -1.6918    1.3398 C   0  0  0  0  0  0  0  0  0  0  0  0
   -1.6991   -1.6523    3.0844 S   0  0  0  0  0  0  0  0  0  0  0  0
   -0.0054   -0.9846    3.2674 C   0  0  0  0  0  0  0  0  0  0  0  0
    0.2377   -0.6649    4.7297 C   0  0  0  0  0  0  0  0  0  0  0  0
   -3.2189   -1.9571    0.8653 C   0  0  0  0  0  0  0  0  0  0  0  0
   -4.1914   -2.2660    1.7555 F   0  0  0  0  0  0  0  0  0  0  0  0
   -3.5453   -1.9036   -0.4711 C   0  0  0  0  0  0  0  0  0  0  0  0
   -2.5016   -0.1209   -3.3811 C   0  0  0  0  0  0  0  0  0  0  0  0
   -2.8137    0.2426   -4.7102 C   0  0  0  0  0  0  0  0  0  0  0  0
   -3.5227   -0.6450   -5.5361 C   0  0  0  0  0  0  0  0  0  0  0  0
   -3.8686   -0.2392   -6.9045 C   0  0  0  0  0  0  0  0  0  0  0  0
   -3.5241   -1.0073   -8.0137 C   0  0  0  0  0  0  0  0  0  0  0  0
   -3.7627   -0.5392   -9.2888 C   0  0  0  0  0  0  0  0  0  0  0  0
   -4.3719    0.6952   -9.5111 C   0  0  0  0  0  0  0  0  0  0  0  0
   -4.6059    1.1966  -11.1901 S   0  0  0  0  0  0  0  0  0  0  0  0
   -4.3449    3.0111  -11.1758 C   0  0  0  0  0  0  0  0  0  0  0  0
   -2.9864    3.4008  -10.6290 C   0  0  0  0  0  0  0  0  0  0  0  0
   -4.7813    1.4137   -8.3920 C   0  0  0  0  0  0  0  0  0  0  0  0
   -4.5209    0.9727   -7.1116 C   0  0  0  0  0  0  0  0  0  0  0  0
   -5.4475    2.5839   -8.5191 F   0  0  0  0  0  0  0  0  0  0  0  0
   -3.8767   -1.8603   -4.9797 C   0  0  0  0  0  0  0  0  0  0  0  0
   -4.7552   -3.1204   -5.7959 S   0  0  0  0  0  0  0  0  0  0  0  0
   -2.3312    1.5325   -5.0368 C   0  0  0  0  0  0  0  0  0  0  0  0
   -1.7140    2.1655   -4.0013 C   0  0  0  0  0  0  0  0  0  0  0  0
   -1.6629    1.1735   -2.5555 S   0  0  0  0  0  0  0  0  0  0  0  0
   -1.1837    3.4871   -4.0143 C   0  0  0  0  0  0  0  0  0  0  0  0
   -0.6017    4.1856   -3.0009 C   0  0  0  0  0  0  0  0  0  0  0  0
   -0.2354    5.5091   -3.3620 C   0  0  0  0  0  0  0  0  0  0  0  0
    0.3971    6.4823   -2.5721 C   0  0  0  0  0  0  0  0  0  0  0  0
    0.6629    6.2301   -1.1513 C   0  0  0  0  0  0  0  0  0  0  0  0
   -0.3555    5.7620   -0.3248 C   0  0  0  0  0  0  0  0  0  0  0  0
   -0.1288    5.4883    1.0093 C   0  0  0  0  0  0  0  0  0  0  0  0
    1.1331    5.6627    1.5655 C   0  0  0  0  0  0  0  0  0  0  0  0
    1.5651    5.3376    3.2429 S   0  0  0  0  0  0  0  0  0  0  0  0
    0.1334    4.4157    3.9037 C   0  0  0  0  0  0  0  0  0  0  0  0
    0.0564    2.9998    3.3639 C   0  0  0  0  0  0  0  0  0  0  0  0
    2.1383    6.1571    0.7320 C   0  0  0  0  0  0  0  0  0  0  0  0
    3.3709    6.3508    1.2425 F   0  0  0  0  0  0  0  0  0  0  0  0
    1.9229    6.4435   -0.5976 C   0  0  0  0  0  0  0  0  0  0  0  0
    0.7183    7.6790   -3.1982 C   0  0  0  0  0  0  0  0  0  0  0  0
    0.4092    7.9553   -4.5531 C   0  0  0  0  0  0  0  0  0  0  0  0
   -0.2446    6.9929   -5.3344 C   0  0  0  0  0  0  0  0  0  0  0  0
   -0.5885    7.1968   -6.7479 C   0  0  0  0  0  0  0  0  0  0  0  0
   -1.8797    6.9354   -7.2046 C   0  0  0  0  0  0  0  0  0  0  0  0
   -2.1897    7.0499   -8.5418 C   0  0  0  0  0  0  0  0  0  0  0  0
   -1.2269    7.4162   -9.4804 C   0  0  0  0  0  0  0  0  0  0  0  0
   -1.7264    7.4276  -11.1782 S   0  0  0  0  0  0  0  0  0  0  0  0
   -0.8690    8.8754  -11.8975 C   0  0  0  0  0  0  0  0  0  0  0  0
   -1.2227   10.1602  -11.1764 C   0  0  0  0  0  0  0  0  0  0  0  0
    0.0576    7.6728   -9.0111 C   0  0  0  0  0  0  0  0  0  0  0  0
    0.3770    7.5834   -7.6705 C   0  0  0  0  0  0  0  0  0  0  0  0
    1.0534    8.0088   -9.8619 F   0  0  0  0  0  0  0  0  0  0  0  0
   -0.5492    5.7913   -4.7128 C   0  0  0  0  0  0  0  0  0  0  0  0
   -1.3061    4.4274   -5.4900 S   0  0  0  0  0  0  0  0  0  0  0  0
    0.7928    9.2795   -4.9199 C   0  0  0  0  0  0  0  0  0  0  0  0
    1.3656    9.9599   -3.9068 C   0  0  0  0  0  0  0  0  0  0  0  0
    1.4799    9.0527   -2.4376 S   0  0  0  0  0  0  0  0  0  0  0  0
    9.1897   -3.4353    9.3401 H   0  0  0  0  0  0  0  0  0  0  0  0
    6.9767   -2.0672    9.2178 H   0  0  0  0  0  0  0  0  0  0  0  0
    6.2632   -0.4351    7.5226 H   0  0  0  0  0  0  0  0  0  0  0  0
    5.2165    1.5752    8.4787 H   0  0  0  0  0  0  0  0  0  0  0  0
    0.4069    1.4573    9.1092 H   0  0  0  0  0  0  0  0  0  0  0  0
    0.6413    3.2148    9.1333 H   0  0  0  0  0  0  0  0  0  0  0  0
    1.5184    1.3544    6.8583 H   0  0  0  0  0  0  0  0  0  0  0  0
    0.1190    2.4303    6.8141 H   0  0  0  0  0  0  0  0  0  0  0  0
    1.7559    3.1046    6.8982 H   0  0  0  0  0  0  0  0  0  0  0  0
    2.6200   -2.5920    8.1782 H   0  0  0  0  0  0  0  0  0  0  0  0
    8.8239   -5.1978    4.6378 H   0  0  0  0  0  0  0  0  0  0  0  0
    9.8388   -7.1415    3.5304 H   0  0  0  0  0  0  0  0  0  0  0  0
    7.0672  -11.1379    2.8007 H   0  0  0  0  0  0  0  0  0  0  0  0
    8.3341  -11.4580    1.6029 H   0  0  0  0  0  0  0  0  0  0  0  0
    7.7430   -9.3420    0.4040 H   0  0  0  0  0  0  0  0  0  0  0  0
    6.3505  -10.4299    0.4945 H   0  0  0  0  0  0  0  0  0  0  0  0
    6.4525   -9.0355    1.5704 H   0  0  0  0  0  0  0  0  0  0  0  0
    5.2736   -7.4948    5.3192 H   0  0  0  0  0  0  0  0  0  0  0  0
    4.5167   -5.8047    3.6293 H   0  0  0  0  0  0  0  0  0  0  0  0
    0.5786   -4.9541    0.0800 H   0  0  0  0  0  0  0  0  0  0  0  0
   -1.0785   -4.4634    1.9974 H   0  0  0  0  0  0  0  0  0  0  0  0
    0.7394   -4.0622    5.3563 H   0  0  0  0  0  0  0  0  0  0  0  0
   -1.3488   -3.9740    6.0834 H   0  0  0  0  0  0  0  0  0  0  0  0
   -2.2713   -5.0705    3.3838 H   0  0  0  0  0  0  0  0  0  0  0  0
   -6.2664   -4.7739    7.3123 H   0  0  0  0  0  0  0  0  0  0  0  0
   -6.9616   -5.1659    4.8263 H   0  0  0  0  0  0  0  0  0  0  0  0
   -4.1280   -4.6414    2.4096 H   0  0  0  0  0  0  0  0  0  0  0  0
   -6.6576   -6.1259    2.7601 H   0  0  0  0  0  0  0  0  0  0  0  0
   -5.1008   -5.1865    0.2923 H   0  0  0  0  0  0  0  0  0  0  0  0
   -9.6587   -8.4107   -0.6596 H   0  0  0  0  0  0  0  0  0  0  0  0
   -8.3712   -7.4575   -2.7117 H   0  0  0  0  0  0  0  0  0  0  0  0
   -5.7011   -4.9750   -1.8380 H   0  0  0  0  0  0  0  0  0  0  0  0
   -6.5377   -7.0199   -3.7854 H   0  0  0  0  0  0  0  0  0  0  0  0
   -5.5385   -5.7365   -5.4644 H   0  0  0  0  0  0  0  0  0  0  0  0
   -3.9523   -3.9568   -2.3511 H   0  0  0  0  0  0  0  0  0  0  0  0
   -0.4693   -1.2067   -1.6630 H   0  0  0  0  0  0  0  0  0  0  0  0
    0.0782   -1.3013    0.7003 H   0  0  0  0  0  0  0  0  0  0  0  0
    0.6984   -1.7383    2.9141 H   0  0  0  0  0  0  0  0  0  0  0  0
    0.0648   -0.0858    2.6550 H   0  0  0  0  0  0  0  0  0  0  0  0
    1.2571   -0.3085    4.8613 H   0  0  0  0  0  0  0  0  0  0  0  0
    0.1015   -1.5510    5.3437 H   0  0  0  0  0  0  0  0  0  0  0  0
   -0.4533    0.1004    5.0744 H   0  0  0  0  0  0  0  0  0  0  0  0
   -4.5701   -2.0590   -0.7715 H   0  0  0  0  0  0  0  0  0  0  0  0
   -3.0322   -1.9575   -7.8744 H   0  0  0  0  0  0  0  0  0  0  0  0
   -3.4658   -1.1211  -10.1474 H   0  0  0  0  0  0  0  0  0  0  0  0
   -4.4313    3.2754  -12.2298 H   0  0  0  0  0  0  0  0  0  0  0  0
   -5.1568    3.4814  -10.6259 H   0  0  0  0  0  0  0  0  0  0  0  0
   -2.9085    3.1683   -9.5686 H   0  0  0  0  0  0  0  0  0  0  0  0
   -2.1960    2.8724  -11.1578 H   0  0  0  0  0  0  0  0  0  0  0  0
   -2.8342    4.4711  -10.7567 H   0  0  0  0  0  0  0  0  0  0  0  0
   -4.8539    1.5730   -6.2786 H   0  0  0  0  0  0  0  0  0  0  0  0
   -2.4311    1.9813   -6.0088 H   0  0  0  0  0  0  0  0  0  0  0  0
   -0.4261    3.7577   -2.0302 H   0  0  0  0  0  0  0  0  0  0  0  0
   -1.3481    5.6291   -0.7279 H   0  0  0  0  0  0  0  0  0  0  0  0
   -0.9512    5.1405    1.6128 H   0  0  0  0  0  0  0  0  0  0  0  0
   -0.7720    4.9877    3.7062 H   0  0  0  0  0  0  0  0  0  0  0  0
    0.3097    4.4102    4.9791 H   0  0  0  0  0  0  0  0  0  0  0  0
   -0.8050    2.4880    3.7897 H   0  0  0  0  0  0  0  0  0  0  0  0
    0.9572    2.4506    3.6284 H   0  0  0  0  0  0  0  0  0  0  0  0
   -0.0420    2.9999    2.2802 H   0  0  0  0  0  0  0  0  0  0  0  0
    2.7436    6.8057   -1.1960 H   0  0  0  0  0  0  0  0  0  0  0  0
   -2.6500    6.6578   -6.5022 H   0  0  0  0  0  0  0  0  0  0  0  0
   -3.1912    6.8481   -8.8883 H   0  0  0  0  0  0  0  0  0  0  0  0
   -1.2274    8.8903  -12.9268 H   0  0  0  0  0  0  0  0  0  0  0  0
    0.2025    8.6882  -11.8978 H   0  0  0  0  0  0  0  0  0  0  0  0
   -2.3002   10.3118  -11.1710 H   0  0  0  0  0  0  0  0  0  0  0  0
   -0.7526   11.0031  -11.6790 H   0  0  0  0  0  0  0  0  0  0  0  0
   -0.8721   10.1363  -10.1461 H   0  0  0  0  0  0  0  0  0  0  0  0
    1.3949    7.7721   -7.3654 H   0  0  0  0  0  0  0  0  0  0  0  0
    0.6257    9.6922   -5.8982 H   0  0  0  0  0  0  0  0  0  0  0  0
    1.7422   10.9641   -3.9168 H   0  0  0  0  0  0  0  0  0  0  0  0
  1  2  2  0  0  0  0
  2  3  1  0  0  0  0
  3  4  2  0  0  0  0
  4  5  1  0  0  0  0
  5  6  2  0  0  0  0
  6  7  1  0  0  0  0
  7  8  2  0  0  0  0
  8  9  1  0  0  0  0
  9 10  1  0  0  0  0
 10 11  1  0  0  0  0
  8 12  1  0  0  0  0
 12 13  1  0  0  0  0
 12 14  2  0  0  0  0
  4 15  1  0  0  0  0
 15 16  2  0  0  0  0
 16 17  1  0  0  0  0
 17 18  1  0  0  0  0
 18 19  2  0  0  0  0
 19 20  1  0  0  0  0
 20 21  2  0  0  0  0
 21 22  1  0  0  0  0
 22 23  1  0  0  0  0
 23 24  1  0  0  0  0
 21 25  1  0  0  0  0
 25 26  2  0  0  0  0
 25 27  1  0  0  0  0
 17 28  2  0  0  0  0
 28 29  1  0  0  0  0
 16 30  1  0  0  0  0
 30 31  2  0  0  0  0
 31 32  1  0  0  0  0
 31 33  1  0  0  0  0
 33 34  1  0  0  0  0
 34 35  1  0  0  0  0
 35 36  2  0  0  0  0
 36 37  1  0  0  0  0
 37 38  1  0  0  0  0
 38 39  1  0  0  0  0
 39 40  2  0  0  0  0
 40 41  1  0  0  0  0
 41 42  1  0  0  0  0
 42 43  1  0  0  0  0
 43 44  2  0  0  0  0
 44 45  1  0  0  0  0
 45 46  1  0  0  0  0
 46 47  1  0  0  0  0
 47 48  2  0  0  0  0
 48 49  1  0  0  0  0
 49 50  1  0  0  0  0
 50 51  1  0  0  0  0
 51 52  2  0  0  0  0
 52 53  1  0  0  0  0
 53 54  1  0  0  0  0
 54 55  1  0  0  0  0
 55 56  2  0  0  0  0
 56 57  1  0  0  0  0
 57 58  2  0  0  0  0
 58 59  1  0  0  0  0
 59 60  2  0  0  0  0
 60 61  1  0  0  0  0
 61 62  2  0  0  0  0
 62 63  1  0  0  0  0
 63 64  2  0  0  0  0
 64 65  1  0  0  0  0
 65 66  1  0  0  0  0
 66 67  1  0  0  0  0
 64 68  1  0  0  0  0
 68 69  1  0  0  0  0
 68 70  2  0  0  0  0
 60 71  1  0  0  0  0
 71 72  2  0  0  0  0
 72 73  1  0  0  0  0
 73 74  1  0  0  0  0
 74 75  2  0  0  0  0
 75 76  1  0  0  0  0
 76 77  2  0  0  0  0
 77 78  1  0  0  0  0
 78 79  1  0  0  0  0
 79 80  1  0  0  0  0
 77 81  1  0  0  0  0
 81 82  2  0  0  0  0
 81 83  1  0  0  0  0
 73 84  2  0  0  0  0
 84 85  1  0  0  0  0
 72 86  1  0  0  0  0
 86 87  2  0  0  0  0
 87 88  1  0  0  0  0
 87 89  1  0  0  0  0
 89 90  2  0  0  0  0
 90 91  1  0  0  0  0
 91 92  2  0  0  0  0
 92 93  1  0  0  0  0
 93 94  2  0  0  0  0
 94 95  1  0  0  0  0
 95 96  2  0  0  0  0
 96 97  1  0  0  0  0
 97 98  1  0  0  0  0
 98 99  1  0  0  0  0
 96100  1  0  0  0  0
100101  1  0  0  0  0
100102  2  0  0  0  0
 92103  1  0  0  0  0
103104  2  0  0  0  0
104105  1  0  0  0  0
105106  1  0  0  0  0
106107  2  0  0  0  0
107108  1  0  0  0  0
108109  2  0  0  0  0
109110  1  0  0  0  0
110111  1  0  0  0  0
111112  1  0  0  0  0
109113  1  0  0  0  0
113114  2  0  0  0  0
113115  1  0  0  0  0
105116  2  0  0  0  0
116117  1  0  0  0  0
104118  1  0  0  0  0
118119  2  0  0  0  0
119120  1  0  0  0  0
 29  1  1  0  0  0  0
 37 33  2  0  0  0  0
 45 41  2  0  0  0  0
 53 49  2  0  0  0  0
 85 57  1  0  0  0  0
117 89  1  0  0  0  0
 28  3  1  0  0  0  0
 84 59  1  0  0  0  0
116 91  1  0  0  0  0
 14  5  1  0  0  0  0
 32 15  1  0  0  0  0
 70 61  1  0  0  0  0
 88 71  1  0  0  0  0
102 93  1  0  0  0  0
120103  1  0  0  0  0
 26 18  1  0  0  0  0
 82 74  1  0  0  0  0
114106  1  0  0  0  0
  1121  1  0  0  0  0
  2122  1  0  0  0  0
  6123  1  0  0  0  0
  7124  1  0  0  0  0
 10125  1  0  0  0  0
 10126  1  0  0  0  0
 11127  1  0  0  0  0
 11128  1  0  0  0  0
 11129  1  0  0  0  0
 14130  1  0  0  0  0
 19131  1  0  0  0  0
 20132  1  0  0  0  0
 23133  1  0  0  0  0
 23134  1  0  0  0  0
 24135  1  0  0  0  0
 24136  1  0  0  0  0
 24137  1  0  0  0  0
 26138  1  0  0  0  0
 30139  1  0  0  0  0
 35140  1  0  0  0  0
 36141  1  0  0  0  0
 38142  1  0  0  0  0
 39143  1  0  0  0  0
 40144  1  0  0  0  0
 43145  1  0  0  0  0
 44146  1  0  0  0  0
 46147  1  0  0  0  0
 47148  1  0  0  0  0
 48149  1  0  0  0  0
 51150  1  0  0  0  0
 52151  1  0  0  0  0
 54152  1  0  0  0  0
 55153  1  0  0  0  0
 56154  1  0  0  0  0
 58155  1  0  0  0  0
 62156  1  0  0  0  0
 63157  1  0  0  0  0
 66158  1  0  0  0  0
 66159  1  0  0  0  0
 67160  1  0  0  0  0
 67161  1  0  0  0  0
 67162  1  0  0  0  0
 70163  1  0  0  0  0
 75164  1  0  0  0  0
 76165  1  0  0  0  0
 79166  1  0  0  0  0
 79167  1  0  0  0  0
 80168  1  0  0  0  0
 80169  1  0  0  0  0
 80170  1  0  0  0  0
 82171  1  0  0  0  0
 86172  1  0  0  0  0
 90173  1  0  0  0  0
 94174  1  0  0  0  0
 95175  1  0  0  0  0
 98176  1  0  0  0  0
 98177  1  0  0  0  0
 99178  1  0  0  0  0
 99179  1  0  0  0  0
 99180  1  0  0  0  0
102181  1  0  0  0  0
107182  1  0  0  0  0
108183  1  0  0  0  0
111184  1  0  0  0  0
111185  1  0  0  0  0
112186  1  0  0  0  0
112187  1  0  0  0  0
112188  1  0  0  0  0
114189  1  0  0  0  0
118190  1  0  0  0  0
119191  1  0  0  0  0
M  END
