
  xtb     03042216393D
 energy: -429.867394461739 gnorm: 0.000316423121 xtb: 6.4.1 (unknown)
250275  0     0  0            999 V2000
   -1.7991    3.6599    7.8803 C   0  0  0  0  0  0  0  0  0  0  0  0
   -0.6211    3.6576    7.2240 C   0  0  0  0  0  0  0  0  0  0  0  0
   -0.5608    2.6725    6.1928 C   0  0  0  0  0  0  0  0  0  0  0  0
    0.4987    2.3912    5.3165 C   0  0  0  0  0  0  0  0  0  0  0  0
    1.7834    3.1006    5.3742 C   0  0  0  0  0  0  0  0  0  0  0  0
    2.4759    3.2640    6.5734 C   0  0  0  0  0  0  0  0  0  0  0  0
    3.7210    3.8510    6.5894 C   0  0  0  0  0  0  0  0  0  0  0  0
    4.3281    4.3104    5.4210 C   0  0  0  0  0  0  0  0  0  0  0  0
    5.9479    4.9858    5.5935 S   0  0  0  0  0  0  0  0  0  0  0  0
    6.7095    4.8198    3.9318 C   0  0  0  0  0  0  0  0  0  0  0  0
    8.2176    4.7913    4.0795 C   0  0  0  0  0  0  0  0  0  0  0  0
    3.5922    4.2146    4.2443 C   0  0  0  0  0  0  0  0  0  0  0  0
    4.0607    4.7278    3.0847 F   0  0  0  0  0  0  0  0  0  0  0  0
    2.3540    3.6065    4.2110 C   0  0  0  0  0  0  0  0  0  0  0  0
    0.2784    1.3863    4.3829 C   0  0  0  0  0  0  0  0  0  0  0  0
   -0.9339    0.6678    4.2855 C   0  0  0  0  0  0  0  0  0  0  0  0
   -2.0024    0.9676    5.1432 C   0  0  0  0  0  0  0  0  0  0  0  0
   -3.3067    0.3208    4.9522 C   0  0  0  0  0  0  0  0  0  0  0  0
   -3.4354   -1.0654    4.8705 C   0  0  0  0  0  0  0  0  0  0  0  0
   -4.6396   -1.6384    4.5221 C   0  0  0  0  0  0  0  0  0  0  0  0
   -5.7669   -0.8597    4.2600 C   0  0  0  0  0  0  0  0  0  0  0  0
   -7.2297   -1.7109    3.7462 S   0  0  0  0  0  0  0  0  0  0  0  0
   -8.0412   -0.5655    2.5687 C   0  0  0  0  0  0  0  0  0  0  0  0
   -7.1312   -0.1619    1.4271 C   0  0  0  0  0  0  0  0  0  0  0  0
   -5.6464    0.5151    4.4416 C   0  0  0  0  0  0  0  0  0  0  0  0
   -4.4398    1.1043    4.7610 C   0  0  0  0  0  0  0  0  0  0  0  0
   -6.7114    1.3307    4.2896 F   0  0  0  0  0  0  0  0  0  0  0  0
   -1.7802    1.9609    6.0856 C   0  0  0  0  0  0  0  0  0  0  0  0
   -2.9284    2.4886    7.2873 S   0  0  0  0  0  0  0  0  0  0  0  0
   -0.9137   -0.2694    3.2168 C   0  0  0  0  0  0  0  0  0  0  0  0
    0.2499   -0.3027    2.5175 C   0  0  0  0  0  0  0  0  0  0  0  0
    1.4165    0.8324    3.1921 S   0  0  0  0  0  0  0  0  0  0  0  0
    0.6511   -1.0081    1.3185 C   0  0  0  0  0  0  0  0  0  0  0  0
    1.9705   -0.9342    0.9340 C   0  0  0  0  0  0  0  0  0  0  0  0
    2.3552   -1.6153   -0.5912 S   0  0  0  0  0  0  0  0  0  0  0  0
    0.6978   -2.0306   -0.7966 C   0  0  0  0  0  0  0  0  0  0  0  0
   -0.1011   -1.7084    0.3153 C   0  0  0  0  0  0  0  0  0  0  0  0
   -1.3841   -2.1643    0.0748 N   0  0  0  0  0  0  0  0  0  0  0  0
   -2.4714   -2.3447    1.0078 C   0  0  0  0  0  0  0  0  0  0  0  0
   -3.4850   -1.2020    0.9866 C   0  0  0  0  0  0  0  0  0  0  0  0
   -1.3961   -2.7336   -1.1783 C   0  0  0  0  0  0  0  0  0  0  0  0
   -0.1192   -2.6581   -1.7422 C   0  0  0  0  0  0  0  0  0  0  0  0
   -0.0566   -3.3733   -3.3113 S   0  0  0  0  0  0  0  0  0  0  0  0
   -1.7284   -3.7841   -3.1832 C   0  0  0  0  0  0  0  0  0  0  0  0
   -2.3325   -3.4187   -2.0105 C   0  0  0  0  0  0  0  0  0  0  0  0
   -3.7279   -3.6632   -1.6815 C   0  0  0  0  0  0  0  0  0  0  0  0
   -4.4932   -4.7141   -2.0012 C   0  0  0  0  0  0  0  0  0  0  0  0
   -4.1382   -5.8957   -2.7692 C   0  0  0  0  0  0  0  0  0  0  0  0
   -2.9211   -6.5246   -2.7689 C   0  0  0  0  0  0  0  0  0  0  0  0
   -2.7568   -7.8081   -3.9150 S   0  0  0  0  0  0  0  0  0  0  0  0
   -4.3754   -7.5359   -4.4483 C   0  0  0  0  0  0  0  0  0  0  0  0
   -5.0054   -6.5273   -3.7067 C   0  0  0  0  0  0  0  0  0  0  0  0
   -6.2871   -6.3315   -4.1776 N   0  0  0  0  0  0  0  0  0  0  0  0
   -7.3758   -5.8504   -3.3617 C   0  0  0  0  0  0  0  0  0  0  0  0
   -7.6406   -6.7809   -2.1786 C   0  0  0  0  0  0  0  0  0  0  0  0
   -6.4481   -7.1836   -5.2499 C   0  0  0  0  0  0  0  0  0  0  0  0
   -5.2940   -7.9561   -5.4249 C   0  0  0  0  0  0  0  0  0  0  0  0
   -5.4395   -9.0357   -6.7630 S   0  0  0  0  0  0  0  0  0  0  0  0
   -7.0167   -8.4106   -7.0925 C   0  0  0  0  0  0  0  0  0  0  0  0
   -7.4275   -7.4035   -6.2586 C   0  0  0  0  0  0  0  0  0  0  0  0
   -8.6423   -6.6365   -6.4993 C   0  0  0  0  0  0  0  0  0  0  0  0
   -8.7431   -5.3020   -6.4232 C   0  0  0  0  0  0  0  0  0  0  0  0
   -7.6566   -4.3929   -6.1195 C   0  0  0  0  0  0  0  0  0  0  0  0
   -7.6972   -3.3272   -5.2735 C   0  0  0  0  0  0  0  0  0  0  0  0
   -6.4336   -2.7127   -5.0616 C   0  0  0  0  0  0  0  0  0  0  0  0
   -6.1061   -1.6643   -4.1845 C   0  0  0  0  0  0  0  0  0  0  0  0
   -7.1055   -1.0452   -3.3026 C   0  0  0  0  0  0  0  0  0  0  0  0
   -7.2778    0.3379   -3.2793 C   0  0  0  0  0  0  0  0  0  0  0  0
   -8.2260    0.9157   -2.4626 C   0  0  0  0  0  0  0  0  0  0  0  0
   -9.0262    0.1464   -1.6196 C   0  0  0  0  0  0  0  0  0  0  0  0
  -10.1683    1.0037   -0.5720 S   0  0  0  0  0  0  0  0  0  0  0  0
  -11.6622   -0.0538   -0.5795 C   0  0  0  0  0  0  0  0  0  0  0  0
  -12.1981   -0.2682   -1.9804 C   0  0  0  0  0  0  0  0  0  0  0  0
   -8.8146   -1.2282   -1.6215 C   0  0  0  0  0  0  0  0  0  0  0  0
   -9.5076   -2.0410   -0.7906 F   0  0  0  0  0  0  0  0  0  0  0  0
   -7.8899   -1.8214   -2.4563 C   0  0  0  0  0  0  0  0  0  0  0  0
   -4.7826   -1.2501   -4.1772 C   0  0  0  0  0  0  0  0  0  0  0  0
   -3.7910   -1.8239   -5.0085 C   0  0  0  0  0  0  0  0  0  0  0  0
   -4.1087   -2.8908   -5.8622 C   0  0  0  0  0  0  0  0  0  0  0  0
   -3.0602   -3.5573   -6.6432 C   0  0  0  0  0  0  0  0  0  0  0  0
   -2.8807   -4.9375   -6.5571 C   0  0  0  0  0  0  0  0  0  0  0  0
   -1.8296   -5.5512   -7.2018 C   0  0  0  0  0  0  0  0  0  0  0  0
   -0.9281   -4.8236   -7.9795 C   0  0  0  0  0  0  0  0  0  0  0  0
    0.3571   -5.7387   -8.7708 S   0  0  0  0  0  0  0  0  0  0  0  0
    1.7968   -4.6070   -8.8300 C   0  0  0  0  0  0  0  0  0  0  0  0
    2.2272   -4.1416   -7.4538 C   0  0  0  0  0  0  0  0  0  0  0  0
   -1.1577   -3.4565   -8.1064 C   0  0  0  0  0  0  0  0  0  0  0  0
   -2.1873   -2.8240   -7.4398 C   0  0  0  0  0  0  0  0  0  0  0  0
   -0.3728   -2.6871   -8.8947 F   0  0  0  0  0  0  0  0  0  0  0  0
   -5.4273   -3.3162   -5.8561 C   0  0  0  0  0  0  0  0  0  0  0  0
   -6.0654   -4.6212   -6.8127 S   0  0  0  0  0  0  0  0  0  0  0  0
   -2.5135   -1.2616   -4.7725 C   0  0  0  0  0  0  0  0  0  0  0  0
   -2.4978   -0.3159   -3.7936 C   0  0  0  0  0  0  0  0  0  0  0  0
   -4.0900   -0.0520   -3.1067 S   0  0  0  0  0  0  0  0  0  0  0  0
   -1.3319    0.3245   -3.2827 C   0  0  0  0  0  0  0  0  0  0  0  0
   -1.1920    1.1038   -2.1737 C   0  0  0  0  0  0  0  0  0  0  0  0
    0.1604    1.3870   -1.8486 C   0  0  0  0  0  0  0  0  0  0  0  0
    0.6794    2.0675   -0.7342 C   0  0  0  0  0  0  0  0  0  0  0  0
   -0.1571    2.6433    0.3226 C   0  0  0  0  0  0  0  0  0  0  0  0
   -1.2516    1.9573    0.8482 C   0  0  0  0  0  0  0  0  0  0  0  0
   -1.9932    2.4926    1.8761 C   0  0  0  0  0  0  0  0  0  0  0  0
   -1.6793    3.7296    2.4449 C   0  0  0  0  0  0  0  0  0  0  0  0
   -2.7525    4.2554    3.7367 S   0  0  0  0  0  0  0  0  0  0  0  0
   -2.0283    5.7767    4.4579 C   0  0  0  0  0  0  0  0  0  0  0  0
   -2.9305    6.2427    5.5839 C   0  0  0  0  0  0  0  0  0  0  0  0
   -0.5852    4.4037    1.9126 C   0  0  0  0  0  0  0  0  0  0  0  0
   -0.2023    5.6133    2.3834 F   0  0  0  0  0  0  0  0  0  0  0  0
    0.1599    3.8807    0.8742 C   0  0  0  0  0  0  0  0  0  0  0  0
    2.0636    2.0913   -0.6167 C   0  0  0  0  0  0  0  0  0  0  0  0
    2.9528    1.4989   -1.5461 C   0  0  0  0  0  0  0  0  0  0  0  0
    2.4346    0.8701   -2.6871 C   0  0  0  0  0  0  0  0  0  0  0  0
    3.2899    0.2046   -3.6786 C   0  0  0  0  0  0  0  0  0  0  0  0
    3.0848   -1.1358   -3.9997 C   0  0  0  0  0  0  0  0  0  0  0  0
    3.8412   -1.7470   -4.9752 C   0  0  0  0  0  0  0  0  0  0  0  0
    4.8217   -1.0463   -5.6708 C   0  0  0  0  0  0  0  0  0  0  0  0
    5.7207   -1.9086   -6.9319 S   0  0  0  0  0  0  0  0  0  0  0  0
    5.6627   -0.7292   -8.3323 C   0  0  0  0  0  0  0  0  0  0  0  0
    4.2387   -0.4185   -8.7487 C   0  0  0  0  0  0  0  0  0  0  0  0
    5.0528    0.2757   -5.3037 C   0  0  0  0  0  0  0  0  0  0  0  0
    4.3016    0.9022   -4.3285 C   0  0  0  0  0  0  0  0  0  0  0  0
    6.0246    0.9970   -5.9032 F   0  0  0  0  0  0  0  0  0  0  0  0
    1.0538    0.8196   -2.7931 C   0  0  0  0  0  0  0  0  0  0  0  0
    0.2010   -0.0101   -4.0620 S   0  0  0  0  0  0  0  0  0  0  0  0
    4.2881    1.4511   -1.0574 C   0  0  0  0  0  0  0  0  0  0  0  0
    4.4112    1.9544    0.2006 C   0  0  0  0  0  0  0  0  0  0  0  0
    2.9161    2.6387    0.7938 S   0  0  0  0  0  0  0  0  0  0  0  0
    5.4726    1.8206    1.1571 C   0  0  0  0  0  0  0  0  0  0  0  0
    6.8252    1.8147    1.0362 C   0  0  0  0  0  0  0  0  0  0  0  0
    7.4979    1.5325    2.2605 C   0  0  0  0  0  0  0  0  0  0  0  0
    8.8775    1.5002    2.5140 C   0  0  0  0  0  0  0  0  0  0  0  0
    9.8616    1.7182    1.4472 C   0  0  0  0  0  0  0  0  0  0  0  0
   10.8896    2.6475    1.5956 C   0  0  0  0  0  0  0  0  0  0  0  0
   11.8182    2.8315    0.5942 C   0  0  0  0  0  0  0  0  0  0  0  0
   11.7616    2.1042   -0.5936 C   0  0  0  0  0  0  0  0  0  0  0  0
   12.9843    2.4668   -1.8181 S   0  0  0  0  0  0  0  0  0  0  0  0
   13.3842    0.8405   -2.5583 C   0  0  0  0  0  0  0  0  0  0  0  0
   13.8728   -0.1500   -1.5208 C   0  0  0  0  0  0  0  0  0  0  0  0
   10.7169    1.1958   -0.7362 C   0  0  0  0  0  0  0  0  0  0  0  0
   10.5713    0.4745   -1.8697 F   0  0  0  0  0  0  0  0  0  0  0  0
    9.7881    0.9909    0.2639 C   0  0  0  0  0  0  0  0  0  0  0  0
    9.2660    1.2397    3.8220 C   0  0  0  0  0  0  0  0  0  0  0  0
    8.3535    0.9886    4.8764 C   0  0  0  0  0  0  0  0  0  0  0  0
    6.9742    1.0303    4.6303 C   0  0  0  0  0  0  0  0  0  0  0  0
    5.9610    0.8058    5.6682 C   0  0  0  0  0  0  0  0  0  0  0  0
    6.0241    1.4354    6.9104 C   0  0  0  0  0  0  0  0  0  0  0  0
    5.0217    1.2546    7.8388 C   0  0  0  0  0  0  0  0  0  0  0  0
    3.9117    0.4528    7.5729 C   0  0  0  0  0  0  0  0  0  0  0  0
    2.6932    0.3288    8.8477 S   0  0  0  0  0  0  0  0  0  0  0  0
    1.0877    0.1148    7.9810 C   0  0  0  0  0  0  0  0  0  0  0  0
    0.5563   -1.3016    8.0630 C   0  0  0  0  0  0  0  0  0  0  0  0
    3.8806   -0.1981    6.3452 C   0  0  0  0  0  0  0  0  0  0  0  0
    4.8772   -0.0277    5.4076 C   0  0  0  0  0  0  0  0  0  0  0  0
    2.8727   -1.0407    6.0261 F   0  0  0  0  0  0  0  0  0  0  0  0
    6.5902    1.3054    3.3239 C   0  0  0  0  0  0  0  0  0  0  0  0
    4.9427    1.4725    2.7934 S   0  0  0  0  0  0  0  0  0  0  0  0
    9.0306    0.6668    6.0908 C   0  0  0  0  0  0  0  0  0  0  0  0
   10.3724    0.6907    5.9659 C   0  0  0  0  0  0  0  0  0  0  0  0
   10.9160    1.1005    4.3747 S   0  0  0  0  0  0  0  0  0  0  0  0
   -2.0961    4.2903    8.6961 H   0  0  0  0  0  0  0  0  0  0  0  0
    0.1834    4.3356    7.4440 H   0  0  0  0  0  0  0  0  0  0  0  0
    2.0555    2.8948    7.4956 H   0  0  0  0  0  0  0  0  0  0  0  0
    4.2596    3.9585    7.5173 H   0  0  0  0  0  0  0  0  0  0  0  0
    6.3871    5.6607    3.3195 H   0  0  0  0  0  0  0  0  0  0  0  0
    6.3465    3.8899    3.5023 H   0  0  0  0  0  0  0  0  0  0  0  0
    8.6760    4.6744    3.0995 H   0  0  0  0  0  0  0  0  0  0  0  0
    8.5224    3.9584    4.7096 H   0  0  0  0  0  0  0  0  0  0  0  0
    8.5770    5.7147    4.5278 H   0  0  0  0  0  0  0  0  0  0  0  0
    1.8347    3.5561    3.2674 H   0  0  0  0  0  0  0  0  0  0  0  0
   -2.5827   -1.6944    5.0783 H   0  0  0  0  0  0  0  0  0  0  0  0
   -4.7296   -2.7103    4.4321 H   0  0  0  0  0  0  0  0  0  0  0  0
   -8.4126    0.2985    3.1147 H   0  0  0  0  0  0  0  0  0  0  0  0
   -8.8882   -1.1471    2.2050 H   0  0  0  0  0  0  0  0  0  0  0  0
   -6.2504    0.3627    1.7914 H   0  0  0  0  0  0  0  0  0  0  0  0
   -6.8087   -1.0351    0.8630 H   0  0  0  0  0  0  0  0  0  0  0  0
   -7.6676    0.5077    0.7588 H   0  0  0  0  0  0  0  0  0  0  0  0
   -4.3916    2.1795    4.8331 H   0  0  0  0  0  0  0  0  0  0  0  0
   -1.7697   -0.8719    3.0012 H   0  0  0  0  0  0  0  0  0  0  0  0
    2.7639   -0.4838    1.4979 H   0  0  0  0  0  0  0  0  0  0  0  0
   -2.9742   -3.2786    0.7387 H   0  0  0  0  0  0  0  0  0  0  0  0
   -2.0540   -2.4791    2.0078 H   0  0  0  0  0  0  0  0  0  0  0  0
   -3.0521   -0.2806    1.3644 H   0  0  0  0  0  0  0  0  0  0  0  0
   -4.3341   -1.4635    1.6126 H   0  0  0  0  0  0  0  0  0  0  0  0
   -3.8354   -1.0164   -0.0269 H   0  0  0  0  0  0  0  0  0  0  0  0
   -2.1860   -4.2787   -4.0157 H   0  0  0  0  0  0  0  0  0  0  0  0
   -4.1981   -2.8763   -1.1070 H   0  0  0  0  0  0  0  0  0  0  0  0
   -5.5238   -4.6794   -1.6743 H   0  0  0  0  0  0  0  0  0  0  0  0
   -2.0810   -6.2943   -2.1451 H   0  0  0  0  0  0  0  0  0  0  0  0
   -8.2685   -5.7923   -3.9848 H   0  0  0  0  0  0  0  0  0  0  0  0
   -7.1298   -4.8459   -3.0091 H   0  0  0  0  0  0  0  0  0  0  0  0
   -8.4625   -6.3959   -1.5804 H   0  0  0  0  0  0  0  0  0  0  0  0
   -6.7577   -6.8653   -1.5488 H   0  0  0  0  0  0  0  0  0  0  0  0
   -7.9040   -7.7739   -2.5356 H   0  0  0  0  0  0  0  0  0  0  0  0
   -7.5453   -8.7859   -7.9465 H   0  0  0  0  0  0  0  0  0  0  0  0
   -9.5095   -7.2107   -6.7975 H   0  0  0  0  0  0  0  0  0  0  0  0
   -9.7095   -4.8362   -6.5703 H   0  0  0  0  0  0  0  0  0  0  0  0
   -8.5975   -3.0115   -4.7764 H   0  0  0  0  0  0  0  0  0  0  0  0
   -6.6814    0.9606   -3.9277 H   0  0  0  0  0  0  0  0  0  0  0  0
   -8.3668    1.9852   -2.4623 H   0  0  0  0  0  0  0  0  0  0  0  0
  -12.3679    0.5105    0.0299 H   0  0  0  0  0  0  0  0  0  0  0  0
  -11.4359   -0.9933   -0.0802 H   0  0  0  0  0  0  0  0  0  0  0  0
  -13.1262   -0.8343   -1.9347 H   0  0  0  0  0  0  0  0  0  0  0  0
  -12.3938    0.6861   -2.4649 H   0  0  0  0  0  0  0  0  0  0  0  0
  -11.4859   -0.8241   -2.5877 H   0  0  0  0  0  0  0  0  0  0  0  0
   -7.7689   -2.8923   -2.4093 H   0  0  0  0  0  0  0  0  0  0  0  0
   -3.5520   -5.5270   -5.9521 H   0  0  0  0  0  0  0  0  0  0  0  0
   -1.6815   -6.6156   -7.1064 H   0  0  0  0  0  0  0  0  0  0  0  0
    1.5676   -3.7751   -9.4922 H   0  0  0  0  0  0  0  0  0  0  0  0
    2.5679   -5.2247   -9.2913 H   0  0  0  0  0  0  0  0  0  0  0  0
    1.4777   -3.4926   -7.0045 H   0  0  0  0  0  0  0  0  0  0  0  0
    3.1600   -3.5868   -7.5355 H   0  0  0  0  0  0  0  0  0  0  0  0
    2.3853   -4.9939   -6.7961 H   0  0  0  0  0  0  0  0  0  0  0  0
   -2.3179   -1.7616   -7.5774 H   0  0  0  0  0  0  0  0  0  0  0  0
   -1.6209   -1.5696   -5.2858 H   0  0  0  0  0  0  0  0  0  0  0  0
   -2.0371    1.4480   -1.6057 H   0  0  0  0  0  0  0  0  0  0  0  0
   -1.4934    0.9797    0.4650 H   0  0  0  0  0  0  0  0  0  0  0  0
   -2.8418    1.9585    2.2771 H   0  0  0  0  0  0  0  0  0  0  0  0
   -1.0315    5.5292    4.8219 H   0  0  0  0  0  0  0  0  0  0  0  0
   -1.9658    6.5304    3.6757 H   0  0  0  0  0  0  0  0  0  0  0  0
   -3.9272    6.4621    5.2075 H   0  0  0  0  0  0  0  0  0  0  0  0
   -3.0121    5.4778    6.3526 H   0  0  0  0  0  0  0  0  0  0  0  0
   -2.5187    7.1444    6.0312 H   0  0  0  0  0  0  0  0  0  0  0  0
    0.9779    4.4720    0.4925 H   0  0  0  0  0  0  0  0  0  0  0  0
    2.3332   -1.7073   -3.4790 H   0  0  0  0  0  0  0  0  0  0  0  0
    3.6746   -2.7835   -5.2205 H   0  0  0  0  0  0  0  0  0  0  0  0
    6.2126    0.1684   -8.0580 H   0  0  0  0  0  0  0  0  0  0  0  0
    6.2021   -1.2471   -9.1251 H   0  0  0  0  0  0  0  0  0  0  0  0
    3.7066   -1.3309   -9.0097 H   0  0  0  0  0  0  0  0  0  0  0  0
    4.2459    0.2405   -9.6146 H   0  0  0  0  0  0  0  0  0  0  0  0
    3.6978    0.0761   -7.9434 H   0  0  0  0  0  0  0  0  0  0  0  0
    4.5038    1.9365   -4.0949 H   0  0  0  0  0  0  0  0  0  0  0  0
    5.0911    0.9702   -1.5862 H   0  0  0  0  0  0  0  0  0  0  0  0
    7.3333    2.0362    0.1157 H   0  0  0  0  0  0  0  0  0  0  0  0
   10.9562    3.2333    2.4993 H   0  0  0  0  0  0  0  0  0  0  0  0
   12.6138    3.5502    0.7135 H   0  0  0  0  0  0  0  0  0  0  0  0
   14.1709    1.0816   -3.2732 H   0  0  0  0  0  0  0  0  0  0  0  0
   12.5154    0.4719   -3.0988 H   0  0  0  0  0  0  0  0  0  0  0  0
   14.7255    0.2537   -0.9788 H   0  0  0  0  0  0  0  0  0  0  0  0
   14.1740   -1.0737   -2.0107 H   0  0  0  0  0  0  0  0  0  0  0  0
   13.0870   -0.3824   -0.8044 H   0  0  0  0  0  0  0  0  0  0  0  0
    9.0172    0.2510    0.1121 H   0  0  0  0  0  0  0  0  0  0  0  0
    6.8406    2.1049    7.1322 H   0  0  0  0  0  0  0  0  0  0  0  0
    5.0723    1.7483    8.7969 H   0  0  0  0  0  0  0  0  0  0  0  0
    1.2199    0.4404    6.9526 H   0  0  0  0  0  0  0  0  0  0  0  0
    0.4144    0.8075    8.4879 H   0  0  0  0  0  0  0  0  0  0  0  0
   -0.4228   -1.3452    7.5891 H   0  0  0  0  0  0  0  0  0  0  0  0
    0.4570   -1.6117    9.1007 H   0  0  0  0  0  0  0  0  0  0  0  0
    1.2200   -1.9938    7.5523 H   0  0  0  0  0  0  0  0  0  0  0  0
    4.8049   -0.5820    4.4852 H   0  0  0  0  0  0  0  0  0  0  0  0
    8.5207    0.4111    7.0014 H   0  0  0  0  0  0  0  0  0  0  0  0
   11.1079    0.4894    6.7200 H   0  0  0  0  0  0  0  0  0  0  0  0
  1  2  2  0  0  0  0
  2  3  1  0  0  0  0
  3  4  2  0  0  0  0
  4  5  1  0  0  0  0
  5  6  2  0  0  0  0
  6  7  1  0  0  0  0
  7  8  2  0  0  0  0
  8  9  1  0  0  0  0
  9 10  1  0  0  0  0
 10 11  1  0  0  0  0
  8 12  1  0  0  0  0
 12 13  1  0  0  0  0
 12 14  2  0  0  0  0
  4 15  1  0  0  0  0
 15 16  2  0  0  0  0
 16 17  1  0  0  0  0
 17 18  1  0  0  0  0
 18 19  2  0  0  0  0
 19 20  1  0  0  0  0
 20 21  2  0  0  0  0
 21 22  1  0  0  0  0
 22 23  1  0  0  0  0
 23 24  1  0  0  0  0
 21 25  1  0  0  0  0
 25 26  2  0  0  0  0
 25 27  1  0  0  0  0
 17 28  2  0  0  0  0
 28 29  1  0  0  0  0
 16 30  1  0  0  0  0
 30 31  2  0  0  0  0
 31 32  1  0  0  0  0
 31 33  1  0  0  0  0
 33 34  2  0  0  0  0
 34 35  1  0  0  0  0
 35 36  1  0  0  0  0
 36 37  2  0  0  0  0
 37 38  1  0  0  0  0
 38 39  1  0  0  0  0
 39 40  1  0  0  0  0
 38 41  1  0  0  0  0
 41 42  2  0  0  0  0
 42 43  1  0  0  0  0
 43 44  1  0  0  0  0
 44 45  2  0  0  0  0
 45 46  1  0  0  0  0
 46 47  2  0  0  0  0
 47 48  1  0  0  0  0
 48 49  2  0  0  0  0
 49 50  1  0  0  0  0
 50 51  1  0  0  0  0
 51 52  2  0  0  0  0
 52 53  1  0  0  0  0
 53 54  1  0  0  0  0
 54 55  1  0  0  0  0
 53 56  1  0  0  0  0
 56 57  2  0  0  0  0
 57 58  1  0  0  0  0
 58 59  1  0  0  0  0
 59 60  2  0  0  0  0
 60 61  1  0  0  0  0
 61 62  2  0  0  0  0
 62 63  1  0  0  0  0
 63 64  2  0  0  0  0
 64 65  1  0  0  0  0
 65 66  2  0  0  0  0
 66 67  1  0  0  0  0
 67 68  2  0  0  0  0
 68 69  1  0  0  0  0
 69 70  2  0  0  0  0
 70 71  1  0  0  0  0
 71 72  1  0  0  0  0
 72 73  1  0  0  0  0
 70 74  1  0  0  0  0
 74 75  1  0  0  0  0
 74 76  2  0  0  0  0
 66 77  1  0  0  0  0
 77 78  2  0  0  0  0
 78 79  1  0  0  0  0
 79 80  1  0  0  0  0
 80 81  2  0  0  0  0
 81 82  1  0  0  0  0
 82 83  2  0  0  0  0
 83 84  1  0  0  0  0
 84 85  1  0  0  0  0
 85 86  1  0  0  0  0
 83 87  1  0  0  0  0
 87 88  2  0  0  0  0
 87 89  1  0  0  0  0
 79 90  2  0  0  0  0
 90 91  1  0  0  0  0
 78 92  1  0  0  0  0
 92 93  2  0  0  0  0
 93 94  1  0  0  0  0
 93 95  1  0  0  0  0
 95 96  2  0  0  0  0
 96 97  1  0  0  0  0
 97 98  2  0  0  0  0
 98 99  1  0  0  0  0
 99100  2  0  0  0  0
100101  1  0  0  0  0
101102  2  0  0  0  0
102103  1  0  0  0  0
103104  1  0  0  0  0
104105  1  0  0  0  0
102106  1  0  0  0  0
106107  1  0  0  0  0
106108  2  0  0  0  0
 98109  1  0  0  0  0
109110  2  0  0  0  0
110111  1  0  0  0  0
111112  1  0  0  0  0
112113  2  0  0  0  0
113114  1  0  0  0  0
114115  2  0  0  0  0
115116  1  0  0  0  0
116117  1  0  0  0  0
117118  1  0  0  0  0
115119  1  0  0  0  0
119120  2  0  0  0  0
119121  1  0  0  0  0
111122  2  0  0  0  0
122123  1  0  0  0  0
110124  1  0  0  0  0
124125  2  0  0  0  0
125126  1  0  0  0  0
125127  1  0  0  0  0
127128  2  0  0  0  0
128129  1  0  0  0  0
129130  2  0  0  0  0
130131  1  0  0  0  0
131132  2  0  0  0  0
132133  1  0  0  0  0
133134  2  0  0  0  0
134135  1  0  0  0  0
135136  1  0  0  0  0
136137  1  0  0  0  0
134138  1  0  0  0  0
138139  1  0  0  0  0
138140  2  0  0  0  0
130141  1  0  0  0  0
141142  2  0  0  0  0
142143  1  0  0  0  0
143144  1  0  0  0  0
144145  2  0  0  0  0
145146  1  0  0  0  0
146147  2  0  0  0  0
147148  1  0  0  0  0
148149  1  0  0  0  0
149150  1  0  0  0  0
147151  1  0  0  0  0
151152  2  0  0  0  0
151153  1  0  0  0  0
143154  2  0  0  0  0
154155  1  0  0  0  0
142156  1  0  0  0  0
156157  2  0  0  0  0
157158  1  0  0  0  0
 29  1  1  0  0  0  0
 37 33  1  0  0  0  0
 45 41  1  0  0  0  0
 52 48  1  0  0  0  0
 60 56  1  0  0  0  0
 91 63  1  0  0  0  0
123 95  1  0  0  0  0
155127  1  0  0  0  0
 28  3  1  0  0  0  0
 42 36  1  0  0  0  0
 57 51  1  0  0  0  0
 90 65  1  0  0  0  0
122 97  1  0  0  0  0
154129  1  0  0  0  0
 14  5  1  0  0  0  0
 32 15  1  0  0  0  0
 76 67  1  0  0  0  0
 94 77  1  0  0  0  0
108 99  1  0  0  0  0
126109  1  0  0  0  0
140131  1  0  0  0  0
158141  1  0  0  0  0
 26 18  1  0  0  0  0
 88 80  1  0  0  0  0
120112  1  0  0  0  0
152144  1  0  0  0  0
  1159  1  0  0  0  0
  2160  1  0  0  0  0
  6161  1  0  0  0  0
  7162  1  0  0  0  0
 10163  1  0  0  0  0
 10164  1  0  0  0  0
 11165  1  0  0  0  0
 11166  1  0  0  0  0
 11167  1  0  0  0  0
 14168  1  0  0  0  0
 19169  1  0  0  0  0
 20170  1  0  0  0  0
 23171  1  0  0  0  0
 23172  1  0  0  0  0
 24173  1  0  0  0  0
 24174  1  0  0  0  0
 24175  1  0  0  0  0
 26176  1  0  0  0  0
 30177  1  0  0  0  0
 34178  1  0  0  0  0
 39179  1  0  0  0  0
 39180  1  0  0  0  0
 40181  1  0  0  0  0
 40182  1  0  0  0  0
 40183  1  0  0  0  0
 44184  1  0  0  0  0
 46185  1  0  0  0  0
 47186  1  0  0  0  0
 49187  1  0  0  0  0
 54188  1  0  0  0  0
 54189  1  0  0  0  0
 55190  1  0  0  0  0
 55191  1  0  0  0  0
 55192  1  0  0  0  0
 59193  1  0  0  0  0
 61194  1  0  0  0  0
 62195  1  0  0  0  0
 64196  1  0  0  0  0
 68197  1  0  0  0  0
 69198  1  0  0  0  0
 72199  1  0  0  0  0
 72200  1  0  0  0  0
 73201  1  0  0  0  0
 73202  1  0  0  0  0
 73203  1  0  0  0  0
 76204  1  0  0  0  0
 81205  1  0  0  0  0
 82206  1  0  0  0  0
 85207  1  0  0  0  0
 85208  1  0  0  0  0
 86209  1  0  0  0  0
 86210  1  0  0  0  0
 86211  1  0  0  0  0
 88212  1  0  0  0  0
 92213  1  0  0  0  0
 96214  1  0  0  0  0
100215  1  0  0  0  0
101216  1  0  0  0  0
104217  1  0  0  0  0
104218  1  0  0  0  0
105219  1  0  0  0  0
105220  1  0  0  0  0
105221  1  0  0  0  0
108222  1  0  0  0  0
113223  1  0  0  0  0
114224  1  0  0  0  0
117225  1  0  0  0  0
117226  1  0  0  0  0
118227  1  0  0  0  0
118228  1  0  0  0  0
118229  1  0  0  0  0
120230  1  0  0  0  0
124231  1  0  0  0  0
128232  1  0  0  0  0
132233  1  0  0  0  0
133234  1  0  0  0  0
136235  1  0  0  0  0
136236  1  0  0  0  0
137237  1  0  0  0  0
137238  1  0  0  0  0
137239  1  0  0  0  0
140240  1  0  0  0  0
145241  1  0  0  0  0
146242  1  0  0  0  0
149243  1  0  0  0  0
149244  1  0  0  0  0
150245  1  0  0  0  0
150246  1  0  0  0  0
150247  1  0  0  0  0
152248  1  0  0  0  0
156249  1  0  0  0  0
157250  1  0  0  0  0
M  END
