254

C        -14.42100       -2.07000       14.57010
C        -13.46560       -1.12090       14.64570
C        -13.12370       -0.57820       13.37300
C        -12.16000        0.39800       13.07460
C        -11.32750        0.99330       14.10860
S        -10.36690        0.00630       15.17090
C         -9.69760        1.38360       15.97670
C         -8.67730        1.23230       17.05050
C         -7.26750        1.16520       16.45820
C        -10.19440        2.53260       15.43860
Cl        -9.76440        4.10370       15.97780
C        -11.11960        2.31640       14.38180
Cl       -11.93980        3.60290       13.60130
C        -12.00420        0.74350       11.73780
C        -12.77020        0.15650       10.70110
C        -13.74840       -0.80620       11.00000
C        -14.53700       -1.41550        9.94140
S        -13.76870       -2.14440        8.56040
C        -15.28320       -2.55060        7.82860
C        -15.33270       -3.17700        6.47900
C        -14.98470       -2.15580        5.39290
C        -16.31350       -2.14510        8.62250
C        -15.89570       -1.50770        9.82310
Cl       -17.01010       -0.84340       10.94190
Cl       -17.97010       -2.36610        8.23300
C        -13.89950       -1.15350       12.33720
S        -14.98280       -2.36300       12.96250
C        -12.40040        0.65480        9.42870
C        -11.38040        1.55680        9.47060
S        -10.83320        1.86660       11.10370
C        -10.75630        2.17910        8.34990
C         -9.83380        3.18140        8.33170
C         -9.38250        3.50950        7.02860
C         -8.39280        4.43750        6.65920
C         -7.70020        5.25120        7.64400
S         -6.93550        4.54320        9.03700
C         -6.36060        6.07420        9.60050
C         -5.52050        6.18150       10.82470
C         -4.04140        5.97040       10.49220
C         -6.74140        7.06560        8.74640
Cl        -6.35900        8.72240        8.97410
C         -7.50160        6.60470        7.63810
Cl        -8.16470        7.67310        6.47440
C         -8.06600        4.50580        5.30990
C         -8.70500        3.71650        4.32150
C         -9.72000        2.81240        4.68370
C        -10.33920        1.93320        3.70620
S         -9.35550        0.97840        2.63200
C        -10.72990        0.20920        1.92160
C        -10.60180       -0.80460        0.83570
C         -9.15440       -1.06620        0.44390
C        -11.87710        0.67480        2.49330
C        -11.66260        1.64950        3.50330
Cl       -12.96070        2.43760        4.29640
Cl       -13.44200        0.13390        2.04170
C        -10.02760        2.72900        6.03570
S        -11.14640        1.60370        6.74330
C         -8.14410        3.92090        3.04060
C         -7.07920        4.77660        3.04040
S         -6.76560        5.43900        4.62650
C         -6.20710        5.02370        1.93750
C         -6.35780        4.54590        0.66660
C         -5.22350        4.74750       -0.15230
C         -4.99710        4.25140       -1.44970
C         -6.01870        3.53230       -2.19150
S         -6.90140        2.19790       -1.50530
C         -7.79590        1.93080       -2.96340
C         -8.85210        0.88480       -3.04210
C        -10.16900        1.39370       -2.45080
C         -7.42870        2.83570       -3.91330
Cl        -8.10450        2.89670       -5.48890
C         -6.41820        3.73800       -3.48390
Cl        -5.84410        5.00650       -4.48200
C         -3.72050        4.42500       -1.96970
C         -2.70130        5.13470       -1.28660
C         -2.95400        5.70550       -0.02550
C         -1.92850        6.43970        0.69640
S         -0.32890        5.79260        0.93110
C          0.19440        7.18180        1.81790
C          1.60140        7.30900        2.28640
C          2.49940        7.85090        1.17140
C         -0.81960        8.08690        1.91730
C         -2.02530        7.66720        1.29310
Cl        -3.41750        8.66390        1.23020
Cl        -0.67680        9.59850        2.71660
C         -4.20570        5.46510        0.52660
S         -4.68250        5.84960        2.15500
C         -1.46850        5.07330       -1.97390
C         -1.50260        4.28960       -3.09200
S         -3.10980        3.68670       -3.42340
C         -0.36260        3.82070       -3.81170
C          0.93770        4.00660       -3.43670
C          1.85020        3.19550       -4.14670
C          3.21380        3.00250       -3.86800
C          3.84890        3.67780       -2.74670
S          5.29660        4.61730       -2.94910
C          5.35960        5.02630       -1.26760
C          6.41660        5.92780       -0.73290
C          6.13530        7.38620       -1.10110
C          4.31380        4.45810       -0.60390
Cl         4.04220        4.61930        1.08170
C          3.45660        3.68940       -1.43630
Cl         2.11570        2.81360       -0.81030
C          3.88800        2.07660       -4.64910
C          3.26120        1.34530       -5.68860
C          1.89470        1.53840       -5.96760
C          1.21620        0.77670       -7.00250
S          1.32920       -0.95880       -7.07660
C          0.29980       -1.04990       -8.46540
C          0.01000       -2.35670       -9.11720
C          1.22600       -2.86500       -9.89480
C         -0.09680        0.19860       -8.83980
C          0.41250        1.23470       -8.00980
Cl         0.10530        2.89080       -8.32250
Cl        -1.11610        0.51960      -10.18240
C          1.21260        2.44540       -5.16670
S         -0.50700        2.71810       -5.16150
C          4.14670        0.41330       -6.27870
C          5.37930        0.38030       -5.69180
S          5.53630        1.56950       -4.41760
C          6.41990       -0.56120       -5.95190
C          6.35860       -1.63050       -6.79810
C          7.49070       -2.47660       -6.73070
C          7.70700       -3.67310       -7.44460
C          6.78960       -4.08410       -8.48730
C          6.20370       -3.29420       -9.43660
C          5.32650       -3.97910      -10.30730
C          4.61030       -3.33950      -11.45390
C          5.47750       -3.36330      -12.71360
C          5.26320       -5.30620       -9.99300
Cl         4.31750       -6.49500      -10.77880
S          6.26960       -5.73870       -8.64910
C          8.82570       -4.41280       -7.08200
C          9.75960       -3.96950       -6.11260
C          9.59120       -2.73120       -5.45930
C         10.56410       -2.22490       -4.51280
C         10.34160       -1.52100       -3.36250
C         11.51280       -1.14500       -2.66640
C         11.51640       -0.42620       -1.35520
C         11.47620       -1.42200       -0.19470
C         12.63320       -1.57240       -3.31850
S         12.27770       -2.42890       -4.78050
Cl        14.25590       -1.35000       -2.82620
C          8.42960       -2.02990       -5.76850
S          7.91430       -0.53130       -5.04290
C         10.77490       -4.92780       -5.89380
C         10.66050       -6.04200       -6.67310
S          9.27310       -5.96700       -7.73180
C         11.53360       -7.17070       -6.62150
C         12.73910       -7.20490       -5.98450
C         13.35420       -8.47830       -6.00580
C         14.55770       -8.85990       -5.38900
C         15.27270       -7.91530       -4.54790
S         16.95440       -7.54920       -4.79020
C         16.96230       -6.37350       -3.52130
C         18.17480       -5.56620       -3.21300
C         18.13630       -4.22370       -3.94790
C         15.72750       -6.28230       -2.95040
Cl        15.34480       -5.21100       -1.66580
C         14.76950       -7.15840       -3.52390
Cl        13.16820       -7.29050       -2.91570
C         14.99300      -10.15850       -5.61710
C         14.25240      -11.09250       -6.38140
C         13.01130      -10.73100       -6.93020
C         12.18430      -11.69160       -7.64190
S         11.56180      -11.35130       -9.22840
C         10.73300      -12.86770       -9.31290
C          9.88870      -13.21540      -10.48850
C          8.51890      -12.53940      -10.39070
C         10.92750      -13.57950       -8.16690
C         11.75450      -12.91870       -7.21910
Cl        12.09530      -13.57840       -5.67140
Cl        10.25180      -15.12990       -7.87440
C         12.59900       -9.41730       -6.74720
S         11.11690       -8.71380       -7.33420
C         14.93460      -12.34040       -6.48470
C         16.10220      -12.35620       -5.81090
S         16.46350      -10.86520       -5.01040
H        -14.85410       -2.63270       15.37390
H        -13.01050       -0.80600       15.56650
H         -8.87820        0.32080       17.61590
H         -8.74910        2.08740       17.72520
H         -7.18000        0.31430       15.78680
H         -7.05060        2.07230       15.90000
H         -6.53370        1.06050       17.25280
H        -14.62340       -4.00610        6.43500
H        -16.33770       -3.56760        6.31210
H        -15.69040       -1.32900        5.41120
H        -15.02380       -2.62350        4.41280
H        -13.98370       -1.76070        5.55130
H        -12.86870        0.36150        8.50710
H         -9.48650        3.66120        9.22850
H         -5.84100        5.43280       11.55110
H         -5.65910        7.17370       11.25830
H         -3.70680        6.71560        9.77520
H         -3.88790        4.98260       10.06410
H         -3.44030        6.05850       11.39310
H        -11.07190       -1.73420        1.17070
H        -11.16910       -0.45650       -0.03280
H         -8.67470       -0.14890        0.10940
H         -9.11030       -1.79810       -0.35830
H         -8.59490       -1.45050        1.29330
H         -8.49250        3.42440        2.15560
H         -7.24050        4.03230        0.33740
H         -9.00090        0.61930       -4.09000
H         -8.52650       -0.00340       -2.49820
H        -10.51370        2.26730       -2.99800
H        -10.03500        1.66910       -1.40720
H        -10.93050        0.62130       -2.51650
H          1.62780        7.98750        3.14070
H          1.97020        6.33140        2.60120
H          3.52170        7.93810        1.52950
H          2.15480        8.83090        0.85030
H          2.48490        7.17750        0.31730
H         -0.57500        5.55500       -1.62760
H          1.23270        4.67100       -2.64780
H          6.44800        5.82080        0.35280
H          7.38520        5.63320       -1.14140
H          6.91280        8.02930       -0.69800
H          5.17700        7.70140       -0.69570
H          6.11100        7.50300       -2.18190
H         -0.26320       -3.09060       -8.35620
H         -0.83440       -2.22640       -9.79570
H          0.99600       -3.81690      -10.36560
H          2.07260       -3.00390       -9.22610
H          1.50370       -2.15200      -10.66710
H          3.87100       -0.23050       -7.09170
H          5.50470       -1.84400       -7.41240
H          6.42210       -2.24630       -9.54080
H          3.67900       -3.87450      -11.64440
H          4.37060       -2.30660      -11.19530
H          4.95580       -2.88480      -13.53860
H          5.70490       -4.38870      -12.99440
H          6.41390       -2.83790      -12.54120
H          9.35870       -1.29980       -2.98820
H         12.41750        0.18470       -1.27750
H         10.64630        0.23040       -1.30650
H         11.47160       -0.89390        0.75550
H         10.58290       -2.03950       -0.25490
H         12.34690       -2.07270       -0.22570
H         11.54010       -4.82260       -5.14980
H         13.18830       -6.34040       -5.53460
H         19.06450       -6.12240       -3.51080
H         18.21600       -5.38820       -2.13620
H         19.02430       -3.64370       -3.71170
H         17.25940       -3.65540       -3.64860
H         18.09740       -4.38210       -5.02290
H         10.38810      -12.89100      -11.40330
H          9.76340      -14.29900      -10.52250
H          8.00110      -12.86550       -9.49230
H          7.91300      -12.79660      -11.25520
H          8.63420      -11.45880      -10.35190
H         14.56230      -13.17320       -7.05190
H         16.80290      -13.16380       -5.72690
