
  xtb     03052204173D
 energy: -324.377938452702 gnorm: 0.000591858497 xtb: 6.4.1 (unknown)
191211  0     0  0            999 V2000
   10.5760   -8.7368   11.5368 C   0  0  0  0  0  0  0  0  0  0  0  0
   10.9011   -7.6672   10.7838 C   0  0  0  0  0  0  0  0  0  0  0  0
    9.8989   -7.3383    9.8227 C   0  0  0  0  0  0  0  0  0  0  0  0
    9.9014   -6.2937    8.8862 C   0  0  0  0  0  0  0  0  0  0  0  0
   10.9942   -5.3131    8.8326 C   0  0  0  0  0  0  0  0  0  0  0  0
   11.6648   -5.0441    7.6416 C   0  0  0  0  0  0  0  0  0  0  0  0
   12.6752   -4.1069    7.6023 C   0  0  0  0  0  0  0  0  0  0  0  0
   13.0574   -3.4042    8.7426 C   0  0  0  0  0  0  0  0  0  0  0  0
   14.3981   -2.2579    8.5867 S   0  0  0  0  0  0  0  0  0  0  0  0
   13.8449   -0.8098    9.5618 C   0  0  0  0  0  0  0  0  0  0  0  0
   12.5328   -0.2508    9.0498 C   0  0  0  0  0  0  0  0  0  0  0  0
   12.3932   -3.6983    9.9291 C   0  0  0  0  0  0  0  0  0  0  0  0
   12.7300   -3.0809   11.0839 F   0  0  0  0  0  0  0  0  0  0  0  0
   11.3717   -4.6250    9.9810 C   0  0  0  0  0  0  0  0  0  0  0  0
    8.8134   -6.2194    8.0306 C   0  0  0  0  0  0  0  0  0  0  0  0
    7.7095   -7.1063    8.1004 C   0  0  0  0  0  0  0  0  0  0  0  0
    7.6985   -8.1389    9.0516 C   0  0  0  0  0  0  0  0  0  0  0  0
    6.5583   -9.0548    9.1772 C   0  0  0  0  0  0  0  0  0  0  0  0
    5.2603   -8.5676    9.3246 C   0  0  0  0  0  0  0  0  0  0  0  0
    4.1988   -9.4334    9.4758 C   0  0  0  0  0  0  0  0  0  0  0  0
    4.3826  -10.8149    9.4686 C   0  0  0  0  0  0  0  0  0  0  0  0
    2.9398  -11.8254    9.6297 S   0  0  0  0  0  0  0  0  0  0  0  0
    3.4818  -13.2063   10.7028 C   0  0  0  0  0  0  0  0  0  0  0  0
    4.0325  -12.7158   12.0267 C   0  0  0  0  0  0  0  0  0  0  0  0
    5.6790  -11.2865    9.2873 C   0  0  0  0  0  0  0  0  0  0  0  0
    6.7549  -10.4311    9.1635 C   0  0  0  0  0  0  0  0  0  0  0  0
    5.9306  -12.6124    9.2182 F   0  0  0  0  0  0  0  0  0  0  0  0
    8.8098   -8.2398    9.8764 C   0  0  0  0  0  0  0  0  0  0  0  0
    9.0406   -9.4278   11.1347 S   0  0  0  0  0  0  0  0  0  0  0  0
    6.7268   -6.8070    7.1247 C   0  0  0  0  0  0  0  0  0  0  0  0
    7.0311   -5.7265    6.3438 C   0  0  0  0  0  0  0  0  0  0  0  0
    8.5828   -5.0235    6.7825 S   0  0  0  0  0  0  0  0  0  0  0  0
    6.2559   -5.1550    5.3009 C   0  0  0  0  0  0  0  0  0  0  0  0
    6.6125   -4.1025    4.4946 C   0  0  0  0  0  0  0  0  0  0  0  0
    5.5443   -3.8268    3.6139 C   0  0  0  0  0  0  0  0  0  0  0  0
    4.5030   -4.6999    3.8605 C   0  0  0  0  0  0  0  0  0  0  0  0
    4.8654   -5.6387    4.9506 C   0  0  0  0  0  0  0  0  0  0  0  0
    3.4108   -4.4811    3.0827 N   0  0  0  0  0  0  0  0  0  0  0  0
    3.7020   -3.4653    2.3056 C   0  0  0  0  0  0  0  0  0  0  0  0
    5.1037   -2.9177    2.5274 C   0  0  0  0  0  0  0  0  0  0  0  0
    2.7752   -2.9097    1.3892 C   0  0  0  0  0  0  0  0  0  0  0  0
    1.4589   -3.2491    1.2246 C   0  0  0  0  0  0  0  0  0  0  0  0
    0.7783   -2.4449    0.2816 C   0  0  0  0  0  0  0  0  0  0  0  0
   -0.5796   -2.5073   -0.0875 C   0  0  0  0  0  0  0  0  0  0  0  0
   -1.4605   -3.5668    0.4158 C   0  0  0  0  0  0  0  0  0  0  0  0
   -1.0779   -4.9063    0.3433 C   0  0  0  0  0  0  0  0  0  0  0  0
   -1.9272   -5.9027    0.7723 C   0  0  0  0  0  0  0  0  0  0  0  0
   -3.1811   -5.6093    1.3063 C   0  0  0  0  0  0  0  0  0  0  0  0
   -4.1613   -6.9733    1.8581 S   0  0  0  0  0  0  0  0  0  0  0  0
   -5.8745   -6.5160    1.4009 C   0  0  0  0  0  0  0  0  0  0  0  0
   -6.0152   -6.2485   -0.0841 C   0  0  0  0  0  0  0  0  0  0  0  0
   -3.5340   -4.2669    1.4060 C   0  0  0  0  0  0  0  0  0  0  0  0
   -4.7103   -3.8987    1.9595 F   0  0  0  0  0  0  0  0  0  0  0  0
   -2.7055   -3.2599    0.9544 C   0  0  0  0  0  0  0  0  0  0  0  0
   -1.0335   -1.5270   -0.9566 C   0  0  0  0  0  0  0  0  0  0  0  0
   -0.1786   -0.5462   -1.5163 C   0  0  0  0  0  0  0  0  0  0  0  0
    1.1917   -0.5189   -1.2020 C   0  0  0  0  0  0  0  0  0  0  0  0
    2.0672    0.4672   -1.8467 C   0  0  0  0  0  0  0  0  0  0  0  0
    2.0292    0.6343   -3.2295 C   0  0  0  0  0  0  0  0  0  0  0  0
    2.7834    1.6043   -3.8597 C   0  0  0  0  0  0  0  0  0  0  0  0
    3.6146    2.4439   -3.1271 C   0  0  0  0  0  0  0  0  0  0  0  0
    4.5836    3.7600   -3.7827 S   0  0  0  0  0  0  0  0  0  0  0  0
    4.3115    3.6842   -5.5878 C   0  0  0  0  0  0  0  0  0  0  0  0
    5.1173    2.5848   -6.2529 C   0  0  0  0  0  0  0  0  0  0  0  0
    3.6690    2.2431   -1.7458 C   0  0  0  0  0  0  0  0  0  0  0  0
    2.9194    1.2821   -1.1052 C   0  0  0  0  0  0  0  0  0  0  0  0
    4.4712    3.0340   -1.0045 F   0  0  0  0  0  0  0  0  0  0  0  0
    1.6273   -1.4502   -0.2752 C   0  0  0  0  0  0  0  0  0  0  0  0
    3.2483   -1.5778    0.3501 S   0  0  0  0  0  0  0  0  0  0  0  0
   -0.8810    0.3601   -2.3411 C   0  0  0  0  0  0  0  0  0  0  0  0
   -2.2144    0.0887   -2.4539 C   0  0  0  0  0  0  0  0  0  0  0  0
   -2.6730   -1.3272   -1.5323 S   0  0  0  0  0  0  0  0  0  0  0  0
   -3.1453    0.8684   -3.2035 C   0  0  0  0  0  0  0  0  0  0  0  0
   -2.8146    1.9272   -4.0000 C   0  0  0  0  0  0  0  0  0  0  0  0
   -3.9250    2.5626   -4.5987 C   0  0  0  0  0  0  0  0  0  0  0  0
   -3.9101    3.7094   -5.4132 C   0  0  0  0  0  0  0  0  0  0  0  0
   -2.6257    4.2987   -5.8109 C   0  0  0  0  0  0  0  0  0  0  0  0
   -1.6257    3.4950   -6.3604 C   0  0  0  0  0  0  0  0  0  0  0  0
   -0.3797    4.0122   -6.6362 C   0  0  0  0  0  0  0  0  0  0  0  0
   -0.0791    5.3514   -6.3916 C   0  0  0  0  0  0  0  0  0  0  0  0
    1.5671    5.8806   -6.7672 S   0  0  0  0  0  0  0  0  0  0  0  0
    1.9677    7.1073   -5.4681 C   0  0  0  0  0  0  0  0  0  0  0  0
    1.8519    6.5303   -4.0722 C   0  0  0  0  0  0  0  0  0  0  0  0
   -1.1080    6.1577   -5.9148 C   0  0  0  0  0  0  0  0  0  0  0  0
   -0.9153    7.4792   -5.7126 F   0  0  0  0  0  0  0  0  0  0  0  0
   -2.3558    5.6474   -5.6129 C   0  0  0  0  0  0  0  0  0  0  0  0
   -5.1410    4.2234   -5.7773 C   0  0  0  0  0  0  0  0  0  0  0  0
   -6.3739    3.6280   -5.3965 C   0  0  0  0  0  0  0  0  0  0  0  0
   -6.3832    2.4696   -4.5960 C   0  0  0  0  0  0  0  0  0  0  0  0
   -7.6357    1.8510   -4.1482 C   0  0  0  0  0  0  0  0  0  0  0  0
   -7.8442    0.4813   -4.2754 C   0  0  0  0  0  0  0  0  0  0  0  0
   -9.0161   -0.1101   -3.8439 C   0  0  0  0  0  0  0  0  0  0  0  0
  -10.0264    0.6500   -3.2668 C   0  0  0  0  0  0  0  0  0  0  0  0
  -11.5614    0.0393   -2.6558 S   0  0  0  0  0  0  0  0  0  0  0  0
  -11.6028   -1.7068   -3.1865 C   0  0  0  0  0  0  0  0  0  0  0  0
  -11.8874   -1.8549   -4.6695 C   0  0  0  0  0  0  0  0  0  0  0  0
   -9.7982    2.0215   -3.1334 C   0  0  0  0  0  0  0  0  0  0  0  0
   -8.6363    2.6227   -3.5585 C   0  0  0  0  0  0  0  0  0  0  0  0
  -10.7508    2.7900   -2.5648 F   0  0  0  0  0  0  0  0  0  0  0  0
   -5.1488    1.9607   -4.2207 C   0  0  0  0  0  0  0  0  0  0  0  0
   -4.8742    0.5915   -3.1683 S   0  0  0  0  0  0  0  0  0  0  0  0
   -7.4805    4.3238   -5.9357 C   0  0  0  0  0  0  0  0  0  0  0  0
   -7.1431    5.4250   -6.6782 C   0  0  0  0  0  0  0  0  0  0  0  0
   -5.3996    5.6327   -6.7681 S   0  0  0  0  0  0  0  0  0  0  0  0
   -7.9962    6.3650   -7.3087 C   0  0  0  0  0  0  0  0  0  0  0  0
   -9.3727    6.3814   -7.2917 C   0  0  0  0  0  0  0  0  0  0  0  0
   -9.8178    7.5100   -8.0077 C   0  0  0  0  0  0  0  0  0  0  0  0
   -8.7306    8.2187   -8.4865 C   0  0  0  0  0  0  0  0  0  0  0  0
   -7.4705    7.5475   -8.0882 C   0  0  0  0  0  0  0  0  0  0  0  0
   -9.0666    9.3314   -9.1811 N   0  0  0  0  0  0  0  0  0  0  0  0
  -10.3818    9.3988   -9.1834 C   0  0  0  0  0  0  0  0  0  0  0  0
  -11.0382    8.2411   -8.4348 C   0  0  0  0  0  0  0  0  0  0  0  0
  -11.0852   10.4471   -9.8111 C   0  0  0  0  0  0  0  0  0  0  0  0
  -12.4515   10.6224   -9.8648 C   0  0  0  0  0  0  0  0  0  0  0  0
  -12.7223   11.8071  -10.5829 C   0  0  0  0  0  0  0  0  0  0  0  0
  -11.5383   12.3851  -10.9862 C   0  0  0  0  0  0  0  0  0  0  0  0
  -10.3874   11.5750  -10.5338 C   0  0  0  0  0  0  0  0  0  0  0  0
  -11.7239   13.5511  -11.6924 N   0  0  0  0  0  0  0  0  0  0  0  0
  -12.9948   13.7420  -11.7551 C   0  0  0  0  0  0  0  0  0  0  0  0
  -13.8242   12.6795  -11.0692 C   0  0  0  0  0  0  0  0  0  0  0  0
   11.1489   -9.1895   12.3224 H   0  0  0  0  0  0  0  0  0  0  0  0
   11.8246   -7.1263   10.8836 H   0  0  0  0  0  0  0  0  0  0  0  0
   11.3965   -5.5796    6.7442 H   0  0  0  0  0  0  0  0  0  0  0  0
   13.1930   -3.9003    6.6788 H   0  0  0  0  0  0  0  0  0  0  0  0
   13.7881   -1.0891   10.6115 H   0  0  0  0  0  0  0  0  0  0  0  0
   14.6565   -0.0946    9.4284 H   0  0  0  0  0  0  0  0  0  0  0  0
   12.6104   -0.0019    7.9934 H   0  0  0  0  0  0  0  0  0  0  0  0
   12.2768    0.6500    9.6040 H   0  0  0  0  0  0  0  0  0  0  0  0
   11.7278   -0.9727    9.1758 H   0  0  0  0  0  0  0  0  0  0  0  0
   10.8717   -4.7967   10.9219 H   0  0  0  0  0  0  0  0  0  0  0  0
    5.0917   -7.5018    9.3560 H   0  0  0  0  0  0  0  0  0  0  0  0
    3.1975   -9.0534    9.6076 H   0  0  0  0  0  0  0  0  0  0  0  0
    2.5670  -13.7818   10.8458 H   0  0  0  0  0  0  0  0  0  0  0  0
    4.2025  -13.8150   10.1613 H   0  0  0  0  0  0  0  0  0  0  0  0
    3.3058  -12.0828   12.5320 H   0  0  0  0  0  0  0  0  0  0  0  0
    4.2597  -13.5669   12.6654 H   0  0  0  0  0  0  0  0  0  0  0  0
    4.9468  -12.1435   11.8803 H   0  0  0  0  0  0  0  0  0  0  0  0
    7.7381  -10.8528    9.0248 H   0  0  0  0  0  0  0  0  0  0  0  0
    5.8314   -7.3877    6.9974 H   0  0  0  0  0  0  0  0  0  0  0  0
    7.5501   -3.5774    4.5391 H   0  0  0  0  0  0  0  0  0  0  0  0
    4.8696   -6.6769    4.6163 H   0  0  0  0  0  0  0  0  0  0  0  0
    4.1844   -5.5682    5.7995 H   0  0  0  0  0  0  0  0  0  0  0  0
    5.7063   -2.9929    1.6209 H   0  0  0  0  0  0  0  0  0  0  0  0
    5.0745   -1.8675    2.8211 H   0  0  0  0  0  0  0  0  0  0  0  0
    1.0035   -4.0323    1.8015 H   0  0  0  0  0  0  0  0  0  0  0  0
   -0.1217   -5.1659   -0.0842 H   0  0  0  0  0  0  0  0  0  0  0  0
   -1.6345   -6.9385    0.6988 H   0  0  0  0  0  0  0  0  0  0  0  0
   -6.1878   -5.6644    2.0005 H   0  0  0  0  0  0  0  0  0  0  0  0
   -6.4513   -7.3917    1.6991 H   0  0  0  0  0  0  0  0  0  0  0  0
   -5.4368   -5.3749   -0.3788 H   0  0  0  0  0  0  0  0  0  0  0  0
   -7.0605   -6.0642   -0.3243 H   0  0  0  0  0  0  0  0  0  0  0  0
   -5.6687   -7.1037   -0.6607 H   0  0  0  0  0  0  0  0  0  0  0  0
   -3.0320   -2.2374    1.0629 H   0  0  0  0  0  0  0  0  0  0  0  0
    1.4061   -0.0158   -3.8253 H   0  0  0  0  0  0  0  0  0  0  0  0
    2.7090    1.7048   -4.9300 H   0  0  0  0  0  0  0  0  0  0  0  0
    4.6387    4.6635   -5.9373 H   0  0  0  0  0  0  0  0  0  0  0  0
    3.2425    3.5966   -5.7759 H   0  0  0  0  0  0  0  0  0  0  0  0
    4.9387    2.5983   -7.3264 H   0  0  0  0  0  0  0  0  0  0  0  0
    6.1791    2.7384   -6.0754 H   0  0  0  0  0  0  0  0  0  0  0  0
    4.8462    1.6047   -5.8662 H   0  0  0  0  0  0  0  0  0  0  0  0
    2.9842    1.1962   -0.0324 H   0  0  0  0  0  0  0  0  0  0  0  0
   -0.4130    1.2091   -2.8023 H   0  0  0  0  0  0  0  0  0  0  0  0
   -1.8055    2.2670   -4.1377 H   0  0  0  0  0  0  0  0  0  0  0  0
   -1.8333    2.4567   -6.5703 H   0  0  0  0  0  0  0  0  0  0  0  0
    0.3944    3.3822   -7.0473 H   0  0  0  0  0  0  0  0  0  0  0  0
    2.9982    7.3807   -5.6956 H   0  0  0  0  0  0  0  0  0  0  0  0
    1.3326    7.9798   -5.6039 H   0  0  0  0  0  0  0  0  0  0  0  0
    2.1387    7.2857   -3.3438 H   0  0  0  0  0  0  0  0  0  0  0  0
    0.8295    6.2223   -3.8607 H   0  0  0  0  0  0  0  0  0  0  0  0
    2.5069    5.6703   -3.9518 H   0  0  0  0  0  0  0  0  0  0  0  0
   -3.1028    6.3133   -5.2102 H   0  0  0  0  0  0  0  0  0  0  0  0
   -7.0855   -0.1338   -4.7347 H   0  0  0  0  0  0  0  0  0  0  0  0
   -9.1296   -1.1754   -3.9594 H   0  0  0  0  0  0  0  0  0  0  0  0
  -10.6691   -2.1820   -2.8890 H   0  0  0  0  0  0  0  0  0  0  0  0
  -12.4124   -2.1335   -2.5943 H   0  0  0  0  0  0  0  0  0  0  0  0
  -11.9315   -2.9096   -4.9347 H   0  0  0  0  0  0  0  0  0  0  0  0
  -12.8416   -1.3945   -4.9149 H   0  0  0  0  0  0  0  0  0  0  0  0
  -11.1141   -1.3776   -5.2675 H   0  0  0  0  0  0  0  0  0  0  0  0
   -8.5054    3.6824   -3.4044 H   0  0  0  0  0  0  0  0  0  0  0  0
   -8.4984    4.0130   -5.7910 H   0  0  0  0  0  0  0  0  0  0  0  0
  -10.0037    5.6587   -6.8067 H   0  0  0  0  0  0  0  0  0  0  0  0
   -6.8777    7.2309   -8.9482 H   0  0  0  0  0  0  0  0  0  0  0  0
   -6.8317    8.1848   -7.4748 H   0  0  0  0  0  0  0  0  0  0  0  0
  -11.6834    7.6575   -9.0922 H   0  0  0  0  0  0  0  0  0  0  0  0
  -11.6379    8.6006   -7.5978 H   0  0  0  0  0  0  0  0  0  0  0  0
  -13.1893    9.9698   -9.4326 H   0  0  0  0  0  0  0  0  0  0  0  0
   -9.7755   11.2026  -11.3555 H   0  0  0  0  0  0  0  0  0  0  0  0
   -9.7175   12.1188   -9.8675 H   0  0  0  0  0  0  0  0  0  0  0  0
  -13.4072   14.5969  -12.2606 H   0  0  0  0  0  0  0  0  0  0  0  0
  -14.4297   13.1060  -10.2682 H   0  0  0  0  0  0  0  0  0  0  0  0
  -14.4972   12.1863  -11.7720 H   0  0  0  0  0  0  0  0  0  0  0  0
  1  2  2  0  0  0  0
  2  3  1  0  0  0  0
  3  4  2  0  0  0  0
  4  5  1  0  0  0  0
  5  6  2  0  0  0  0
  6  7  1  0  0  0  0
  7  8  2  0  0  0  0
  8  9  1  0  0  0  0
  9 10  1  0  0  0  0
 10 11  1  0  0  0  0
  8 12  1  0  0  0  0
 12 13  1  0  0  0  0
 12 14  2  0  0  0  0
  4 15  1  0  0  0  0
 15 16  2  0  0  0  0
 16 17  1  0  0  0  0
 17 18  1  0  0  0  0
 18 19  2  0  0  0  0
 19 20  1  0  0  0  0
 20 21  2  0  0  0  0
 21 22  1  0  0  0  0
 22 23  1  0  0  0  0
 23 24  1  0  0  0  0
 21 25  1  0  0  0  0
 25 26  2  0  0  0  0
 25 27  1  0  0  0  0
 17 28  2  0  0  0  0
 28 29  1  0  0  0  0
 16 30  1  0  0  0  0
 30 31  2  0  0  0  0
 31 32  1  0  0  0  0
 31 33  1  0  0  0  0
 33 34  2  0  0  0  0
 34 35  1  0  0  0  0
 35 36  2  0  0  0  0
 36 37  1  0  0  0  0
 36 38  1  0  0  0  0
 38 39  2  0  0  0  0
 39 40  1  0  0  0  0
 39 41  1  0  0  0  0
 41 42  2  0  0  0  0
 42 43  1  0  0  0  0
 43 44  2  0  0  0  0
 44 45  1  0  0  0  0
 45 46  2  0  0  0  0
 46 47  1  0  0  0  0
 47 48  2  0  0  0  0
 48 49  1  0  0  0  0
 49 50  1  0  0  0  0
 50 51  1  0  0  0  0
 48 52  1  0  0  0  0
 52 53  1  0  0  0  0
 52 54  2  0  0  0  0
 44 55  1  0  0  0  0
 55 56  2  0  0  0  0
 56 57  1  0  0  0  0
 57 58  1  0  0  0  0
 58 59  2  0  0  0  0
 59 60  1  0  0  0  0
 60 61  2  0  0  0  0
 61 62  1  0  0  0  0
 62 63  1  0  0  0  0
 63 64  1  0  0  0  0
 61 65  1  0  0  0  0
 65 66  2  0  0  0  0
 65 67  1  0  0  0  0
 57 68  2  0  0  0  0
 68 69  1  0  0  0  0
 56 70  1  0  0  0  0
 70 71  2  0  0  0  0
 71 72  1  0  0  0  0
 71 73  1  0  0  0  0
 73 74  2  0  0  0  0
 74 75  1  0  0  0  0
 75 76  2  0  0  0  0
 76 77  1  0  0  0  0
 77 78  2  0  0  0  0
 78 79  1  0  0  0  0
 79 80  2  0  0  0  0
 80 81  1  0  0  0  0
 81 82  1  0  0  0  0
 82 83  1  0  0  0  0
 80 84  1  0  0  0  0
 84 85  1  0  0  0  0
 84 86  2  0  0  0  0
 76 87  1  0  0  0  0
 87 88  2  0  0  0  0
 88 89  1  0  0  0  0
 89 90  1  0  0  0  0
 90 91  2  0  0  0  0
 91 92  1  0  0  0  0
 92 93  2  0  0  0  0
 93 94  1  0  0  0  0
 94 95  1  0  0  0  0
 95 96  1  0  0  0  0
 93 97  1  0  0  0  0
 97 98  2  0  0  0  0
 97 99  1  0  0  0  0
 89100  2  0  0  0  0
100101  1  0  0  0  0
 88102  1  0  0  0  0
102103  2  0  0  0  0
103104  1  0  0  0  0
103105  1  0  0  0  0
105106  2  0  0  0  0
106107  1  0  0  0  0
107108  2  0  0  0  0
108109  1  0  0  0  0
108110  1  0  0  0  0
110111  2  0  0  0  0
111112  1  0  0  0  0
111113  1  0  0  0  0
113114  2  0  0  0  0
114115  1  0  0  0  0
115116  2  0  0  0  0
116117  1  0  0  0  0
116118  1  0  0  0  0
118119  2  0  0  0  0
119120  1  0  0  0  0
 29  1  1  0  0  0  0
 37 33  1  0  0  0  0
 69 41  1  0  0  0  0
101 73  1  0  0  0  0
109105  1  0  0  0  0
117113  1  0  0  0  0
 28  3  1  0  0  0  0
 40 35  1  0  0  0  0
 68 43  1  0  0  0  0
100 75  1  0  0  0  0
112107  1  0  0  0  0
120115  1  0  0  0  0
 14  5  1  0  0  0  0
 32 15  1  0  0  0  0
 54 45  1  0  0  0  0
 72 55  1  0  0  0  0
 86 77  1  0  0  0  0
104 87  1  0  0  0  0
 26 18  1  0  0  0  0
 66 58  1  0  0  0  0
 98 90  1  0  0  0  0
  1121  1  0  0  0  0
  2122  1  0  0  0  0
  6123  1  0  0  0  0
  7124  1  0  0  0  0
 10125  1  0  0  0  0
 10126  1  0  0  0  0
 11127  1  0  0  0  0
 11128  1  0  0  0  0
 11129  1  0  0  0  0
 14130  1  0  0  0  0
 19131  1  0  0  0  0
 20132  1  0  0  0  0
 23133  1  0  0  0  0
 23134  1  0  0  0  0
 24135  1  0  0  0  0
 24136  1  0  0  0  0
 24137  1  0  0  0  0
 26138  1  0  0  0  0
 30139  1  0  0  0  0
 34140  1  0  0  0  0
 37141  1  0  0  0  0
 37142  1  0  0  0  0
 40143  1  0  0  0  0
 40144  1  0  0  0  0
 42145  1  0  0  0  0
 46146  1  0  0  0  0
 47147  1  0  0  0  0
 50148  1  0  0  0  0
 50149  1  0  0  0  0
 51150  1  0  0  0  0
 51151  1  0  0  0  0
 51152  1  0  0  0  0
 54153  1  0  0  0  0
 59154  1  0  0  0  0
 60155  1  0  0  0  0
 63156  1  0  0  0  0
 63157  1  0  0  0  0
 64158  1  0  0  0  0
 64159  1  0  0  0  0
 64160  1  0  0  0  0
 66161  1  0  0  0  0
 70162  1  0  0  0  0
 74163  1  0  0  0  0
 78164  1  0  0  0  0
 79165  1  0  0  0  0
 82166  1  0  0  0  0
 82167  1  0  0  0  0
 83168  1  0  0  0  0
 83169  1  0  0  0  0
 83170  1  0  0  0  0
 86171  1  0  0  0  0
 91172  1  0  0  0  0
 92173  1  0  0  0  0
 95174  1  0  0  0  0
 95175  1  0  0  0  0
 96176  1  0  0  0  0
 96177  1  0  0  0  0
 96178  1  0  0  0  0
 98179  1  0  0  0  0
102180  1  0  0  0  0
106181  1  0  0  0  0
109182  1  0  0  0  0
109183  1  0  0  0  0
112184  1  0  0  0  0
112185  1  0  0  0  0
114186  1  0  0  0  0
117187  1  0  0  0  0
117188  1  0  0  0  0
119189  1  0  0  0  0
120190  1  0  0  0  0
120191  1  0  0  0  0
M  END
