
  xtb     03082202473D
 energy: -359.051835794287 gnorm: 0.000783905932 xtb: 6.4.1 (unknown)
197214  0     0  0            999 V2000
    8.6104   -5.5149    8.0801 C   0  0  0  0  0  0  0  0  0  0  0  0
    7.8538   -4.4362    8.3646 C   0  0  0  0  0  0  0  0  0  0  0  0
    6.6257   -4.4130    7.6381 C   0  0  0  0  0  0  0  0  0  0  0  0
    5.5851   -3.4757    7.7239 C   0  0  0  0  0  0  0  0  0  0  0  0
    5.7038   -2.2672    8.5490 C   0  0  0  0  0  0  0  0  0  0  0  0
    6.8146   -1.4334    8.4240 C   0  0  0  0  0  0  0  0  0  0  0  0
    6.9103   -0.2767    9.1660 C   0  0  0  0  0  0  0  0  0  0  0  0
    5.9164    0.0892   10.0731 C   0  0  0  0  0  0  0  0  0  0  0  0
    6.1822    1.5715   10.9974 S   0  0  0  0  0  0  0  0  0  0  0  0
    4.5206    2.3256   11.1453 C   0  0  0  0  0  0  0  0  0  0  0  0
    3.8928    2.5860    9.7910 C   0  0  0  0  0  0  0  0  0  0  0  0
    4.8287   -0.7691   10.2088 C   0  0  0  0  0  0  0  0  0  0  0  0
    3.8500   -0.5096   11.1002 F   0  0  0  0  0  0  0  0  0  0  0  0
    4.7057   -1.9169    9.4513 C   0  0  0  0  0  0  0  0  0  0  0  0
    4.4553   -3.7318    6.9622 C   0  0  0  0  0  0  0  0  0  0  0  0
    4.3357   -4.8485    6.1021 C   0  0  0  0  0  0  0  0  0  0  0  0
    5.3693   -5.7918    6.0246 C   0  0  0  0  0  0  0  0  0  0  0  0
    5.2395   -7.0126    5.2198 C   0  0  0  0  0  0  0  0  0  0  0  0
    4.1226   -7.8359    5.3633 C   0  0  0  0  0  0  0  0  0  0  0  0
    4.0107   -8.9999    4.6358 C   0  0  0  0  0  0  0  0  0  0  0  0
    5.0030   -9.3990    3.7396 C   0  0  0  0  0  0  0  0  0  0  0  0
    4.7479  -10.9474    2.9284 S   0  0  0  0  0  0  0  0  0  0  0  0
    5.5260  -10.7680    1.2818 C   0  0  0  0  0  0  0  0  0  0  0  0
    4.9147   -9.6342    0.4836 C   0  0  0  0  0  0  0  0  0  0  0  0
    6.1209   -8.5779    3.6239 C   0  0  0  0  0  0  0  0  0  0  0  0
    6.2405   -7.4018    4.3376 C   0  0  0  0  0  0  0  0  0  0  0  0
    7.1419   -8.9025    2.8005 F   0  0  0  0  0  0  0  0  0  0  0  0
    6.4981   -5.5428    6.7959 C   0  0  0  0  0  0  0  0  0  0  0  0
    7.8965   -6.5771    6.9163 S   0  0  0  0  0  0  0  0  0  0  0  0
    3.1094   -4.8324    5.3784 C   0  0  0  0  0  0  0  0  0  0  0  0
    2.3150   -3.7829    5.7041 C   0  0  0  0  0  0  0  0  0  0  0  0
    3.0356   -2.7136    6.8920 S   0  0  0  0  0  0  0  0  0  0  0  0
    1.0818   -3.4883    5.1509 N   0  0  0  0  0  0  0  0  0  0  0  0
   -0.0287   -3.1242    5.8441 C   0  0  0  0  0  0  0  0  0  0  0  0
   -0.0613   -3.0987    7.5723 S   0  0  0  0  0  0  0  0  0  0  0  0
   -1.7627   -2.7388    7.5174 C   0  0  0  0  0  0  0  0  0  0  0  0
   -2.4267   -2.5647    8.7308 N   0  0  0  0  0  4  0  0  0  0  0  0
   -1.7572   -2.6807    9.7448 O   0  0  0  0  0  1  0  0  0  0  0  0
   -3.6194   -2.3170    8.6958 O   0  0  0  0  0  0  0  0  0  0  0  0
   -2.2580   -2.6493    6.2435 C   0  0  0  0  0  0  0  0  0  0  0  0
   -1.2722   -2.8520    5.2634 C   0  0  0  0  0  0  0  0  0  0  0  0
   -1.4806   -2.7303    3.8408 C   0  0  0  0  0  0  0  0  0  0  0  0
   -2.6452   -2.9776    3.2183 C   0  0  0  0  0  0  0  0  0  0  0  0
   -2.8726   -2.7468    1.8252 C   0  0  0  0  0  0  0  0  0  0  0  0
   -3.8846   -3.2397    1.0560 C   0  0  0  0  0  0  0  0  0  0  0  0
   -3.8571   -2.7906   -0.2901 C   0  0  0  0  0  0  0  0  0  0  0  0
   -4.7166   -3.1514   -1.3428 C   0  0  0  0  0  0  0  0  0  0  0  0
   -5.8632   -4.0421   -1.1303 C   0  0  0  0  0  0  0  0  0  0  0  0
   -6.7960   -3.7852   -0.1259 C   0  0  0  0  0  0  0  0  0  0  0  0
   -7.8733   -4.6221    0.0601 C   0  0  0  0  0  0  0  0  0  0  0  0
   -8.0749   -5.7469   -0.7426 C   0  0  0  0  0  0  0  0  0  0  0  0
   -9.5278   -6.6876   -0.4042 S   0  0  0  0  0  0  0  0  0  0  0  0
   -9.1469   -8.4041   -0.9103 C   0  0  0  0  0  0  0  0  0  0  0  0
   -7.9810   -8.9830   -0.1345 C   0  0  0  0  0  0  0  0  0  0  0  0
   -7.1493   -5.9735   -1.7579 C   0  0  0  0  0  0  0  0  0  0  0  0
   -7.2773   -7.0187   -2.6025 F   0  0  0  0  0  0  0  0  0  0  0  0
   -6.0590   -5.1483   -1.9487 C   0  0  0  0  0  0  0  0  0  0  0  0
   -4.4383   -2.6081   -2.5862 C   0  0  0  0  0  0  0  0  0  0  0  0
   -3.3835   -1.6910   -2.8136 C   0  0  0  0  0  0  0  0  0  0  0  0
   -2.5309   -1.3186   -1.7612 C   0  0  0  0  0  0  0  0  0  0  0  0
   -1.4629   -0.3317   -1.9658 C   0  0  0  0  0  0  0  0  0  0  0  0
   -0.5859   -0.4243   -3.0460 C   0  0  0  0  0  0  0  0  0  0  0  0
    0.3840    0.5340   -3.2509 C   0  0  0  0  0  0  0  0  0  0  0  0
    0.5134    1.6240   -2.3953 C   0  0  0  0  0  0  0  0  0  0  0  0
    1.7760    2.8113   -2.7482 S   0  0  0  0  0  0  0  0  0  0  0  0
    2.5459    3.0891   -1.1079 C   0  0  0  0  0  0  0  0  0  0  0  0
    3.0471    1.7986   -0.4931 C   0  0  0  0  0  0  0  0  0  0  0  0
   -0.3754    1.7140   -1.3302 C   0  0  0  0  0  0  0  0  0  0  0  0
   -1.3336    0.7497   -1.0990 C   0  0  0  0  0  0  0  0  0  0  0  0
   -0.3315    2.7649   -0.4820 F   0  0  0  0  0  0  0  0  0  0  0  0
   -2.7829   -1.8980   -0.5255 C   0  0  0  0  0  0  0  0  0  0  0  0
   -1.8224   -1.6748    0.9117 S   0  0  0  0  0  0  0  0  0  0  0  0
   -3.3918   -1.2044   -4.1458 C   0  0  0  0  0  0  0  0  0  0  0  0
   -4.3905   -1.7340   -4.9043 C   0  0  0  0  0  0  0  0  0  0  0  0
   -5.3840   -2.8759   -4.0400 S   0  0  0  0  0  0  0  0  0  0  0  0
   -4.6009   -1.3699   -6.2117 N   0  0  0  0  0  0  0  0  0  0  0  0
   -5.7206   -1.5007   -6.9837 C   0  0  0  0  0  0  0  0  0  0  0  0
   -6.6676   -2.9371   -7.0809 S   0  0  0  0  0  0  0  0  0  0  0  0
   -7.7006   -2.1503   -8.2367 C   0  0  0  0  0  0  0  0  0  0  0  0
   -8.7749   -2.8827   -8.7444 N   0  0  0  0  0  4  0  0  0  0  0  0
   -8.9016   -4.0249   -8.3344 O   0  0  0  0  0  1  0  0  0  0  0  0
   -9.5062   -2.3361   -9.5499 O   0  0  0  0  0  0  0  0  0  0  0  0
   -7.3389   -0.8515   -8.5054 C   0  0  0  0  0  0  0  0  0  0  0  0
   -6.1949   -0.4679   -7.8025 C   0  0  0  0  0  0  0  0  0  0  0  0
   -5.6075    0.8560   -7.6089 C   0  0  0  0  0  0  0  0  0  0  0  0
   -4.3033    1.1301   -7.7703 C   0  0  0  0  0  0  0  0  0  0  0  0
   -3.6219    2.1541   -7.0170 C   0  0  0  0  0  0  0  0  0  0  0  0
   -2.4553    2.8135   -7.2436 C   0  0  0  0  0  0  0  0  0  0  0  0
   -1.9820    3.5365   -6.1130 C   0  0  0  0  0  0  0  0  0  0  0  0
   -0.8355    4.3380   -6.0058 C   0  0  0  0  0  0  0  0  0  0  0  0
    0.0671    4.5970   -7.1336 C   0  0  0  0  0  0  0  0  0  0  0  0
   -0.3930    5.0958   -8.3498 C   0  0  0  0  0  0  0  0  0  0  0  0
    0.4952    5.4022   -9.3590 C   0  0  0  0  0  0  0  0  0  0  0  0
    1.8669    5.2048   -9.2061 C   0  0  0  0  0  0  0  0  0  0  0  0
    2.9053    5.6358  -10.5688 S   0  0  0  0  0  0  0  0  0  0  0  0
    4.4061    6.3343   -9.7844 C   0  0  0  0  0  0  0  0  0  0  0  0
    4.0842    7.4833   -8.8503 C   0  0  0  0  0  0  0  0  0  0  0  0
    2.3028    4.6503   -8.0059 C   0  0  0  0  0  0  0  0  0  0  0  0
    3.6084    4.3645   -7.8047 F   0  0  0  0  0  0  0  0  0  0  0  0
    1.4306    4.3670   -6.9764 C   0  0  0  0  0  0  0  0  0  0  0  0
   -0.5699    4.8776   -4.7587 C   0  0  0  0  0  0  0  0  0  0  0  0
   -1.3403    4.6155   -3.6008 C   0  0  0  0  0  0  0  0  0  0  0  0
   -2.4957    3.8255   -3.7061 C   0  0  0  0  0  0  0  0  0  0  0  0
   -3.3461    3.5147   -2.5513 C   0  0  0  0  0  0  0  0  0  0  0  0
   -3.7738    2.2106   -2.3183 C   0  0  0  0  0  0  0  0  0  0  0  0
   -4.5788    1.8949   -1.2411 C   0  0  0  0  0  0  0  0  0  0  0  0
   -4.9921    2.8789   -0.3509 C   0  0  0  0  0  0  0  0  0  0  0  0
   -6.0383    2.6433    1.0436 S   0  0  0  0  0  0  0  0  0  0  0  0
   -6.2835    0.8368    1.1385 C   0  0  0  0  0  0  0  0  0  0  0  0
   -5.0776    0.1205    1.7154 C   0  0  0  0  0  0  0  0  0  0  0  0
   -4.5615    4.1854   -0.5999 C   0  0  0  0  0  0  0  0  0  0  0  0
   -3.7582    4.5116   -1.6681 C   0  0  0  0  0  0  0  0  0  0  0  0
   -4.9524    5.1694    0.2340 F   0  0  0  0  0  0  0  0  0  0  0  0
   -2.7932    3.3332   -4.9705 C   0  0  0  0  0  0  0  0  0  0  0  0
   -4.1960    2.3832   -5.3656 S   0  0  0  0  0  0  0  0  0  0  0  0
   -0.7679    5.2103   -2.4446 C   0  0  0  0  0  0  0  0  0  0  0  0
    0.3540    5.9316   -2.7169 C   0  0  0  0  0  0  0  0  0  0  0  0
    0.7532    5.9641   -4.4164 S   0  0  0  0  0  0  0  0  0  0  0  0
    1.0893    6.6214   -1.7795 N   0  0  0  0  0  0  0  0  0  0  0  0
    2.1891    7.4106   -1.9769 C   0  0  0  0  0  0  0  0  0  0  0  0
    2.2824    8.8888   -1.0592 S   0  0  0  0  0  0  0  0  0  0  0  0
    3.7930    9.2594   -1.8229 C   0  0  0  0  0  0  0  0  0  0  0  0
    4.4615   10.4229   -1.4352 N   0  0  0  0  0  4  0  0  0  0  0  0
    3.9299   11.1036   -0.5734 O   0  0  0  0  0  1  0  0  0  0  0  0
    5.5203   10.6758   -1.9816 O   0  0  0  0  0  0  0  0  0  0  0  0
    4.1808    8.3071   -2.7272 C   0  0  0  0  0  0  0  0  0  0  0  0
    3.2834    7.2279   -2.8200 C   0  0  0  0  0  0  0  0  0  0  0  0
    3.5515    6.0352   -3.6105 C   0  0  0  0  0  0  0  0  0  0  0  0
    4.3269    6.0113   -4.6873 C   0  0  0  0  0  0  0  0  0  0  0  0
    9.5692   -5.7726    8.4857 H   0  0  0  0  0  0  0  0  0  0  0  0
    8.1313   -3.6831    9.0793 H   0  0  0  0  0  0  0  0  0  0  0  0
    7.5895   -1.6806    7.7143 H   0  0  0  0  0  0  0  0  0  0  0  0
    7.7633    0.3745    9.0554 H   0  0  0  0  0  0  0  0  0  0  0  0
    4.7206    3.2589   11.6718 H   0  0  0  0  0  0  0  0  0  0  0  0
    3.8958    1.6924   11.7708 H   0  0  0  0  0  0  0  0  0  0  0  0
    4.5519    3.1942    9.1746 H   0  0  0  0  0  0  0  0  0  0  0  0
    2.9502    3.1133    9.9218 H   0  0  0  0  0  0  0  0  0  0  0  0
    3.6931    1.6524    9.2683 H   0  0  0  0  0  0  0  0  0  0  0  0
    3.8422   -2.5453    9.6052 H   0  0  0  0  0  0  0  0  0  0  0  0
    3.3503   -7.5680    6.0682 H   0  0  0  0  0  0  0  0  0  0  0  0
    3.1475   -9.6366    4.7536 H   0  0  0  0  0  0  0  0  0  0  0  0
    6.5999  -10.6499    1.4052 H   0  0  0  0  0  0  0  0  0  0  0  0
    5.3266  -11.7308    0.8110 H   0  0  0  0  0  0  0  0  0  0  0  0
    5.3448   -9.6176   -0.5156 H   0  0  0  0  0  0  0  0  0  0  0  0
    5.1124   -8.6747    0.9573 H   0  0  0  0  0  0  0  0  0  0  0  0
    3.8377   -9.7641    0.3994 H   0  0  0  0  0  0  0  0  0  0  0  0
    7.1241   -6.7998    4.1942 H   0  0  0  0  0  0  0  0  0  0  0  0
    2.8403   -5.5780    4.6521 H   0  0  0  0  0  0  0  0  0  0  0  0
    0.9394   -3.7553    4.1859 H   0  0  0  0  0  0  0  0  0  0  0  0
   -3.2859   -2.4129    6.0386 H   0  0  0  0  0  0  0  0  0  0  0  0
   -0.6362   -2.3867    3.2546 H   0  0  0  0  0  0  0  0  0  0  0  0
   -3.4807   -3.3878    3.7686 H   0  0  0  0  0  0  0  0  0  0  0  0
   -4.6176   -3.9312    1.4313 H   0  0  0  0  0  0  0  0  0  0  0  0
   -6.6828   -2.9122    0.4992 H   0  0  0  0  0  0  0  0  0  0  0  0
   -8.5934   -4.4198    0.8378 H   0  0  0  0  0  0  0  0  0  0  0  0
   -8.9807   -8.4310   -1.9845 H   0  0  0  0  0  0  0  0  0  0  0  0
  -10.0712   -8.9350   -0.6813 H   0  0  0  0  0  0  0  0  0  0  0  0
   -7.8475  -10.0284   -0.4045 H   0  0  0  0  0  0  0  0  0  0  0  0
   -8.1648   -8.9186    0.9360 H   0  0  0  0  0  0  0  0  0  0  0  0
   -7.0590   -8.4516   -0.3607 H   0  0  0  0  0  0  0  0  0  0  0  0
   -5.3652   -5.3891   -2.7391 H   0  0  0  0  0  0  0  0  0  0  0  0
   -0.6446   -1.2738   -3.7090 H   0  0  0  0  0  0  0  0  0  0  0  0
    1.0677    0.4507   -4.0816 H   0  0  0  0  0  0  0  0  0  0  0  0
    1.8282    3.5961   -0.4663 H   0  0  0  0  0  0  0  0  0  0  0  0
    3.3732    3.7661   -1.3212 H   0  0  0  0  0  0  0  0  0  0  0  0
    3.5632    2.0159    0.4398 H   0  0  0  0  0  0  0  0  0  0  0  0
    2.2215    1.1215   -0.2796 H   0  0  0  0  0  0  0  0  0  0  0  0
    3.7397    1.2988   -1.1672 H   0  0  0  0  0  0  0  0  0  0  0  0
   -1.9961    0.8784   -0.2583 H   0  0  0  0  0  0  0  0  0  0  0  0
   -2.7062   -0.4667   -4.5217 H   0  0  0  0  0  0  0  0  0  0  0  0
   -4.0632   -0.5428   -6.4682 H   0  0  0  0  0  0  0  0  0  0  0  0
   -7.8868   -0.2228   -9.1833 H   0  0  0  0  0  0  0  0  0  0  0  0
   -6.2372    1.5683   -7.0879 H   0  0  0  0  0  0  0  0  0  0  0  0
   -3.6824    0.5049   -8.4026 H   0  0  0  0  0  0  0  0  0  0  0  0
   -1.9322    2.7847   -8.1829 H   0  0  0  0  0  0  0  0  0  0  0  0
   -1.4474    5.2820   -8.4869 H   0  0  0  0  0  0  0  0  0  0  0  0
    0.1415    5.8149  -10.2909 H   0  0  0  0  0  0  0  0  0  0  0  0
    4.9917    6.6752  -10.6383 H   0  0  0  0  0  0  0  0  0  0  0  0
    4.9469    5.5365   -9.2801 H   0  0  0  0  0  0  0  0  0  0  0  0
    3.5137    8.2503   -9.3698 H   0  0  0  0  0  0  0  0  0  0  0  0
    3.5052    7.1421   -7.9938 H   0  0  0  0  0  0  0  0  0  0  0  0
    5.0095    7.9244   -8.4853 H   0  0  0  0  0  0  0  0  0  0  0  0
    1.8214    3.9420   -6.0647 H   0  0  0  0  0  0  0  0  0  0  0  0
   -3.4587    1.4168   -2.9765 H   0  0  0  0  0  0  0  0  0  0  0  0
   -4.8802    0.8680   -1.1096 H   0  0  0  0  0  0  0  0  0  0  0  0
   -7.1446    0.7318    1.7985 H   0  0  0  0  0  0  0  0  0  0  0  0
   -6.5564    0.4685    0.1501 H   0  0  0  0  0  0  0  0  0  0  0  0
   -4.8429    0.5124    2.7021 H   0  0  0  0  0  0  0  0  0  0  0  0
   -5.2833   -0.9446    1.8056 H   0  0  0  0  0  0  0  0  0  0  0  0
   -4.2045    0.2502    1.0800 H   0  0  0  0  0  0  0  0  0  0  0  0
   -3.4853    5.5433   -1.8241 H   0  0  0  0  0  0  0  0  0  0  0  0
   -1.1545    5.0749   -1.4515 H   0  0  0  0  0  0  0  0  0  0  0  0
    0.5889    6.7956   -0.9162 H   0  0  0  0  0  0  0  0  0  0  0  0
    5.1073    8.3746   -3.2671 H   0  0  0  0  0  0  0  0  0  0  0  0
    3.0902    5.1237   -3.2576 H   0  0  0  0  0  0  0  0  0  0  0  0
    4.5168    5.0967   -5.2199 H   0  0  0  0  0  0  0  0  0  0  0  0
    4.7832    6.9015   -5.0853 H   0  0  0  0  0  0  0  0  0  0  0  0
  1  2  2  0  0  0  0
  2  3  1  0  0  0  0
  3  4  2  0  0  0  0
  4  5  1  0  0  0  0
  5  6  2  0  0  0  0
  6  7  1  0  0  0  0
  7  8  2  0  0  0  0
  8  9  1  0  0  0  0
  9 10  1  0  0  0  0
 10 11  1  0  0  0  0
  8 12  1  0  0  0  0
 12 13  1  0  0  0  0
 12 14  2  0  0  0  0
  4 15  1  0  0  0  0
 15 16  2  0  0  0  0
 16 17  1  0  0  0  0
 17 18  1  0  0  0  0
 18 19  2  0  0  0  0
 19 20  1  0  0  0  0
 20 21  2  0  0  0  0
 21 22  1  0  0  0  0
 22 23  1  0  0  0  0
 23 24  1  0  0  0  0
 21 25  1  0  0  0  0
 25 26  2  0  0  0  0
 25 27  1  0  0  0  0
 17 28  2  0  0  0  0
 28 29  1  0  0  0  0
 16 30  1  0  0  0  0
 30 31  2  0  0  0  0
 31 32  1  0  0  0  0
 31 33  1  0  0  0  0
 33 34  1  0  0  0  0
 34 35  1  0  0  0  0
 35 36  1  0  0  0  0
 36 37  1  0  0  0  0
 37 38  1  0  0  0  0
 37 39  2  0  0  0  0
 36 40  2  0  0  0  0
 40 41  1  0  0  0  0
 41 42  1  0  0  0  0
 42 43  2  0  0  0  0
 43 44  1  0  0  0  0
 44 45  2  0  0  0  0
 45 46  1  0  0  0  0
 46 47  2  0  0  0  0
 47 48  1  0  0  0  0
 48 49  2  0  0  0  0
 49 50  1  0  0  0  0
 50 51  2  0  0  0  0
 51 52  1  0  0  0  0
 52 53  1  0  0  0  0
 53 54  1  0  0  0  0
 51 55  1  0  0  0  0
 55 56  1  0  0  0  0
 55 57  2  0  0  0  0
 47 58  1  0  0  0  0
 58 59  2  0  0  0  0
 59 60  1  0  0  0  0
 60 61  1  0  0  0  0
 61 62  2  0  0  0  0
 62 63  1  0  0  0  0
 63 64  2  0  0  0  0
 64 65  1  0  0  0  0
 65 66  1  0  0  0  0
 66 67  1  0  0  0  0
 64 68  1  0  0  0  0
 68 69  2  0  0  0  0
 68 70  1  0  0  0  0
 60 71  2  0  0  0  0
 71 72  1  0  0  0  0
 59 73  1  0  0  0  0
 73 74  2  0  0  0  0
 74 75  1  0  0  0  0
 74 76  1  0  0  0  0
 76 77  1  0  0  0  0
 77 78  1  0  0  0  0
 78 79  1  0  0  0  0
 79 80  1  0  0  0  0
 80 81  1  0  0  0  0
 80 82  2  0  0  0  0
 79 83  2  0  0  0  0
 83 84  1  0  0  0  0
 84 85  1  0  0  0  0
 85 86  2  0  0  0  0
 86 87  1  0  0  0  0
 87 88  2  0  0  0  0
 88 89  1  0  0  0  0
 89 90  2  0  0  0  0
 90 91  1  0  0  0  0
 91 92  2  0  0  0  0
 92 93  1  0  0  0  0
 93 94  2  0  0  0  0
 94 95  1  0  0  0  0
 95 96  1  0  0  0  0
 96 97  1  0  0  0  0
 94 98  1  0  0  0  0
 98 99  1  0  0  0  0
 98100  2  0  0  0  0
 90101  1  0  0  0  0
101102  2  0  0  0  0
102103  1  0  0  0  0
103104  1  0  0  0  0
104105  2  0  0  0  0
105106  1  0  0  0  0
106107  2  0  0  0  0
107108  1  0  0  0  0
108109  1  0  0  0  0
109110  1  0  0  0  0
107111  1  0  0  0  0
111112  2  0  0  0  0
111113  1  0  0  0  0
103114  2  0  0  0  0
114115  1  0  0  0  0
102116  1  0  0  0  0
116117  2  0  0  0  0
117118  1  0  0  0  0
117119  1  0  0  0  0
119120  1  0  0  0  0
120121  1  0  0  0  0
121122  1  0  0  0  0
122123  1  0  0  0  0
123124  1  0  0  0  0
123125  2  0  0  0  0
122126  2  0  0  0  0
126127  1  0  0  0  0
127128  1  0  0  0  0
128129  2  0  0  0  0
 29  1  1  0  0  0  0
 41 34  2  0  0  0  0
 72 44  1  0  0  0  0
 84 77  2  0  0  0  0
115 87  1  0  0  0  0
127120  2  0  0  0  0
 28  3  1  0  0  0  0
 71 46  1  0  0  0  0
114 89  1  0  0  0  0
 14  5  1  0  0  0  0
 32 15  1  0  0  0  0
 57 48  1  0  0  0  0
 75 58  1  0  0  0  0
100 91  1  0  0  0  0
118101  1  0  0  0  0
 26 18  1  0  0  0  0
 69 61  1  0  0  0  0
112104  1  0  0  0  0
  1130  1  0  0  0  0
  2131  1  0  0  0  0
  6132  1  0  0  0  0
  7133  1  0  0  0  0
 10134  1  0  0  0  0
 10135  1  0  0  0  0
 11136  1  0  0  0  0
 11137  1  0  0  0  0
 11138  1  0  0  0  0
 14139  1  0  0  0  0
 19140  1  0  0  0  0
 20141  1  0  0  0  0
 23142  1  0  0  0  0
 23143  1  0  0  0  0
 24144  1  0  0  0  0
 24145  1  0  0  0  0
 24146  1  0  0  0  0
 26147  1  0  0  0  0
 30148  1  0  0  0  0
 33149  1  0  0  0  0
 40150  1  0  0  0  0
 42151  1  0  0  0  0
 43152  1  0  0  0  0
 45153  1  0  0  0  0
 49154  1  0  0  0  0
 50155  1  0  0  0  0
 53156  1  0  0  0  0
 53157  1  0  0  0  0
 54158  1  0  0  0  0
 54159  1  0  0  0  0
 54160  1  0  0  0  0
 57161  1  0  0  0  0
 62162  1  0  0  0  0
 63163  1  0  0  0  0
 66164  1  0  0  0  0
 66165  1  0  0  0  0
 67166  1  0  0  0  0
 67167  1  0  0  0  0
 67168  1  0  0  0  0
 69169  1  0  0  0  0
 73170  1  0  0  0  0
 76171  1  0  0  0  0
 83172  1  0  0  0  0
 85173  1  0  0  0  0
 86174  1  0  0  0  0
 88175  1  0  0  0  0
 92176  1  0  0  0  0
 93177  1  0  0  0  0
 96178  1  0  0  0  0
 96179  1  0  0  0  0
 97180  1  0  0  0  0
 97181  1  0  0  0  0
 97182  1  0  0  0  0
100183  1  0  0  0  0
105184  1  0  0  0  0
106185  1  0  0  0  0
109186  1  0  0  0  0
109187  1  0  0  0  0
110188  1  0  0  0  0
110189  1  0  0  0  0
110190  1  0  0  0  0
112191  1  0  0  0  0
116192  1  0  0  0  0
119193  1  0  0  0  0
126194  1  0  0  0  0
128195  1  0  0  0  0
129196  1  0  0  0  0
129197  1  0  0  0  0
M  CHG  1  37   1
M  CHG  1  38  -1
M  CHG  1  80   1
M  CHG  1  81  -1
M  CHG  1 123   1
M  CHG  1 124  -1
M  END
