242

C          4.15220       -2.92500        6.80240
C          3.45180       -2.25940        5.86320
C          2.44050       -3.05380        5.24560
C          1.49820       -2.66620        4.27840
C          1.48640       -1.31020        3.71080
C          2.65720       -0.69660        3.26110
C          2.63230        0.57760        2.72780
C          1.43920        1.28240        2.62260
S          1.36490        2.90200        1.88980
C          2.43970        3.83040        3.04370
C          1.75580        4.08330        4.37030
C          0.27440        0.65740        3.05550
F         -0.90180        1.29950        2.96220
C          0.28720       -0.61140        3.59980
C          0.57230       -3.63130        3.89680
C          0.56300       -4.94410        4.42610
C          1.48890       -5.32230        5.41030
C          1.43690       -6.65270        6.02520
C          2.56700       -7.45710        6.12380
C          2.50350       -8.71260        6.69750
C          1.30740       -9.20620        7.20640
S          1.07690      -10.78600        7.94760
C          2.77120      -11.38680        8.26110
C          3.45600      -10.62300        9.37890
C          0.18150       -8.38710        7.10110
C          0.22970       -7.13800        6.52770
F         -1.00160       -8.82940        7.57750
C          2.41800       -4.36330        5.78500
S          3.64420       -4.56580        7.01070
C         -0.42600       -5.76550        3.82350
C         -1.18190       -5.12620        2.88730
S         -0.67950       -3.44960        2.69780
C         -2.27950       -5.57660        2.08290
S         -2.89570       -4.46560        0.90090
C         -4.12760       -5.58310        0.39370
C         -4.05770       -6.74680        1.11360
C         -3.01250       -6.74830        2.06720
C         -2.75940       -7.96340        2.91350
C         -1.69070       -8.80710        2.21730
F         -1.30450       -9.84910        2.97570
F         -2.12060       -9.32460        1.05790
F         -0.57420       -8.12290        1.93330
C         -4.00630       -8.85150        3.14760
C         -5.28450       -8.27450        2.54750
C         -5.04580       -7.86580        1.09360
C         -4.99900       -5.13050       -0.65940
S         -5.56890       -3.49380       -0.52010
C         -6.25030       -3.53610       -2.12400
C         -6.07500       -4.77010       -2.69670
C         -5.36270       -5.67480       -1.87040
C         -4.93790       -7.02840       -2.37470
C         -3.45380       -6.97540       -2.73930
F         -3.18860       -6.04160       -3.66540
F         -3.02600       -8.14400       -3.24680
F         -2.65380       -6.71110       -1.69830
C         -5.71120       -7.49890       -3.62920
C         -6.97030       -6.68450       -3.90270
C         -6.60950       -5.20530       -4.01900
C         -6.61240       -2.26910       -2.68420
C         -6.89560       -1.14970       -1.96050
C         -6.67000        0.05860       -2.66570
C         -6.55690        1.33620       -2.09050
C         -7.06060        1.58180       -0.73400
C         -6.27240        2.14590        0.26760
C         -6.78230        2.34630        1.53160
C         -8.09780        2.00840        1.85020
S         -8.64000        2.36170        3.49100
C         -9.90540        1.07360        3.83640
C        -10.04300        0.91690        5.33800
C         -8.87870        1.46280        0.83530
F        -10.17650        1.14060        1.04780
C         -8.37260        1.23270       -0.42730
C         -5.85020        2.27280       -2.82690
C         -5.38030        2.02670       -4.14320
C         -5.62200        0.78940       -4.76700
C         -5.08480        0.49210       -6.10250
C         -3.72730        0.64870       -6.37310
C         -3.22300        0.42840       -7.63860
C         -4.05880        0.04370       -8.68150
S         -3.51890       -0.21470      -10.33930
C         -2.05210        0.86930      -10.47160
C         -2.39890        2.33360      -10.29320
C         -5.40370       -0.17400       -8.38000
C         -5.91980        0.04080       -7.11990
F         -6.23720       -0.59010       -9.35290
C         -6.23090       -0.18150       -3.99010
S         -6.24830       -1.89120       -4.36430
C         -4.48940        3.03620       -4.58280
C         -4.18860        3.95430       -3.61530
S         -5.22170        3.77780       -2.20740
C         -2.94000        4.63890       -3.48140
C         -1.84200        4.44180       -4.27250
C         -0.61500        4.71140       -3.61930
C          0.67160        4.36890       -4.07490
C          0.86370        3.86800       -5.44110
C          1.52150        2.66370       -5.67600
C          1.66730        2.16420       -6.95520
C          1.16770        2.85690       -8.05130
S          1.27480        2.31510       -9.72780
C          2.63400        1.09730       -9.71290
C          3.97870        1.73740       -9.42590
C          0.49980        4.05680       -7.80230
F         -0.01560        4.74510       -8.84190
C          0.34230        4.56310       -6.53160
C          1.68720        4.40860       -3.13210
C          1.48040        4.83000       -1.79540
C          0.21550        5.26510       -1.36750
C          0.01100        5.72190        0.01210
C          0.84050        6.70130        0.55700
C          0.64590        7.14860        1.84600
C         -0.37070        6.62940        2.64460
S         -0.50310        7.24970        4.29870
C         -2.30680        7.39660        4.57270
C         -2.96700        8.28770        3.54050
C         -1.16630        5.62520        2.10100
C         -0.99640        5.18400        0.80480
F         -2.13580        5.04440        2.83570
C         -0.81330        5.15820       -2.28820
S         -2.51200        5.36310       -1.94290
C          2.61510        4.58910       -0.98180
C          3.66070        4.03290       -1.65040
S          3.32810        3.85350       -3.36540
C          4.85210        3.48140       -1.09190
C          5.98810        3.08900       -1.72850
C          6.92890        2.45200       -0.87640
C          8.18000        1.91770       -1.21830
C          8.65070        1.92050       -2.60830
C          7.84330        1.41930       -3.62600
C          8.26780        1.41440       -4.94000
C          9.51370        1.92420       -5.28710
S         10.17890        1.97900       -6.91700
C          8.73850        1.67800       -7.99930
C          7.76710        2.84330       -8.00780
C         10.31920        2.40770       -4.25390
F         11.53710        2.90010       -4.55260
C          9.91260        2.40880       -2.93860
C          8.92270        1.36310       -0.18460
C          8.44200        1.25590        1.14280
C          7.17290        1.75330        1.47620
C          6.60340        1.56570        2.81730
C          6.58290        0.30000        3.40310
C          6.04470        0.11300        4.65800
C          5.50870        1.17500        5.38610
S          4.99180        0.82920        7.04680
C          3.44170        1.77270        7.29300
C          2.25500        1.09300        6.63870
C          5.53980        2.43200        4.79110
C          6.05940        2.63130        3.52650
F          5.07310        3.51920        5.44430
C          6.46580        2.38000        0.46060
S          4.88460        3.09830        0.61820
C          9.39760        0.62930        1.99710
C         10.52180        0.26490        1.34790
S         10.50850        0.65260       -0.33770
H          4.95320       -2.55030        7.40960
H          3.62550       -1.22970        5.61980
H          3.59270       -1.23370        3.29640
H          3.54690        1.03040        2.37310
H          3.36360        3.26630        3.15980
H          2.65470        4.76790        2.53180
H          1.46540        3.14480        4.83610
H          0.86460        4.68840        4.23100
H          2.43290        4.61300        5.03700
H         -0.64120       -1.03580        3.94730
H          3.50670       -7.10770        5.72480
H          3.39930       -9.31030        6.73360
H          3.33160      -11.35520        7.32770
H          2.62260      -12.43030        8.53960
H          3.55820       -9.56930        9.12850
H          4.44690      -11.03640        9.55650
H          2.87650      -10.70210       10.29550
H         -0.66540       -6.53590        6.50060
H         -0.50380       -6.80650        4.06760
H         -2.33590       -7.66020        3.87400
H         -4.14030       -8.99990        4.21910
H         -3.83030       -9.83390        2.70440
H         -5.60290       -7.39790        3.11530
H         -6.07400       -9.02410        2.60710
H         -4.65060       -8.72080        0.53750
H         -5.97590       -7.53850        0.62550
H         -5.01950       -7.76550       -1.57160
H         -5.05990       -7.41080       -4.50160
H         -5.96410       -8.55340       -3.51670
H         -7.69040       -6.81950       -3.09280
H         -7.42690       -7.03670       -4.82770
H         -7.47960       -4.60600       -4.29010
H         -5.85220       -5.06560       -4.79570
H         -7.13470       -1.18140       -0.91210
H         -5.24300        2.39670        0.06880
H         -6.16170        2.76930        2.30580
H        -10.84700        1.38350        3.38600
H         -9.55990        0.15010        3.37430
H         -9.09440        0.62020        5.78000
H        -10.78770        0.15560        5.56080
H        -10.35620        1.85430        5.79170
H         -9.02210        0.80720       -1.17700
H         -3.05260        0.92300       -5.57580
H         -2.16600        0.55610       -7.81030
H         -1.29720        0.53470       -9.76160
H         -1.68610        0.67730      -11.47970
H         -2.80550        2.52000       -9.30100
H         -3.13720        2.63900      -11.03060
H         -1.50510        2.94050      -10.42030
H         -6.97240       -0.11910       -6.94590
H         -4.01110        3.01990       -5.54380
H         -1.89610        3.99890       -5.25000
H          1.90000        2.09030       -4.84460
H          2.16410        1.21690       -7.08900
H          2.39080        0.30570       -9.00510
H          2.60880        0.68080      -10.71980
H          4.19050        2.50960      -10.16210
H          3.99250        2.19180       -8.43690
H          4.76200        0.98280       -9.47550
H         -0.16920        5.50370       -6.39900
H          1.62470        7.13240       -0.04720
H          1.28010        7.91650        2.26130
H         -2.37100        7.83300        5.56960
H         -2.74420        6.40090        4.59180
H         -4.01900        8.41460        3.78770
H         -2.89950        7.84810        2.54690
H         -2.49180        9.26650        3.51930
H         -1.62830        4.38730        0.44770
H          2.62710        4.76300        0.07820
H          6.15170        3.26070       -2.77730
H          6.87750        1.00290       -3.38240
H          7.61820        0.99940       -5.69340
H          8.26670        0.74180       -7.70290
H          9.18750        1.54220       -8.98310
H          8.27680        3.75180       -8.31930
H          7.34480        3.01020       -7.01910
H          6.95440        2.64450       -8.70400
H         10.57180        2.81180       -2.18630
H          6.97710       -0.54450        2.85850
H          6.04180       -0.86820        5.10740
H          3.32770        1.79680        8.37660
H          3.58200        2.78670        6.93100
H          2.11900        0.08980        7.03740
H          2.39250        1.02040        5.56060
H          1.35150        1.66660        6.83700
H          6.07410        3.63310        3.12560
H          9.24240        0.48380        3.05080
H         11.39100       -0.21400        1.75470
