
  xtb     03012206113D
 energy: -174.865726126099 gnorm: 0.000158585456 xtb: 6.4.1 (unknown)
 95106  0     0  0            999 V2000
    9.0277    2.3619    4.4135 C   0  0  0  0  0  0  0  0  0  0  0  0
    7.4561    3.0395    4.5528 S   0  0  0  0  0  0  0  0  0  0  0  0
    6.8265    1.8816    3.4306 C   0  0  0  0  0  0  0  0  0  0  0  0
    7.7994    0.9933    3.0128 C   0  0  0  0  0  0  0  0  0  0  0  0
    9.0720    1.2753    3.5851 C   0  0  0  0  0  0  0  0  0  0  0  0
   10.2360    0.5689    3.4424 O   0  0  0  0  0  0  0  0  0  0  0  0
   10.5610    0.0998    2.1523 C   0  0  0  0  0  0  0  0  0  0  0  0
    9.6196   -0.9825    1.6226 C   0  0  0  0  0  0  0  0  0  0  0  0
    8.2824   -0.4110    1.1520 C   0  0  0  0  0  0  0  0  0  0  0  0
    7.4226   -0.0467    2.2079 O   0  0  0  0  0  0  0  0  0  0  0  0
    5.4692    1.8778    3.0231 C   0  0  0  0  0  0  0  0  0  0  0  0
    4.8563    0.7212    1.8854 S   0  0  0  0  0  0  0  0  0  0  0  0
    3.2793    1.4387    1.9757 C   0  0  0  0  0  0  0  0  0  0  0  0
    3.2364    2.5016    2.8667 C   0  0  0  0  0  0  0  0  0  0  0  0
    4.4893    2.7540    3.4627 C   0  0  0  0  0  0  0  0  0  0  0  0
    4.8178    3.6687    4.4249 O   0  0  0  0  0  0  0  0  0  0  0  0
    4.2616    4.9606    4.3235 C   0  0  0  0  0  0  0  0  0  0  0  0
    2.7432    4.9960    4.4995 C   0  0  0  0  0  0  0  0  0  0  0  0
    2.0001    4.4983    3.2599 C   0  0  0  0  0  0  0  0  0  0  0  0
    2.0282    3.0965    3.1052 O   0  0  0  0  0  0  0  0  0  0  0  0
    2.1767    0.9300    1.2562 C   0  0  0  0  0  0  0  0  0  0  0  0
    0.5872    1.5981    1.4141 S   0  0  0  0  0  0  0  0  0  0  0  0
   -0.0722    0.4256    0.3057 C   0  0  0  0  0  0  0  0  0  0  0  0
    0.9331   -0.4058   -0.1850 C   0  0  0  0  0  0  0  0  0  0  0  0
    2.2028   -0.1211    0.3525 C   0  0  0  0  0  0  0  0  0  0  0  0
    3.4119   -0.6871    0.0550 O   0  0  0  0  0  0  0  0  0  0  0  0
    3.4679   -2.0913   -0.0622 C   0  0  0  0  0  0  0  0  0  0  0  0
    2.6931   -2.6377   -1.2617 C   0  0  0  0  0  0  0  0  0  0  0  0
    1.1816   -2.6181   -1.0353 C   0  0  0  0  0  0  0  0  0  0  0  0
    0.6082   -1.3327   -1.1368 O   0  0  0  0  0  0  0  0  0  0  0  0
   -1.4399    0.3178   -0.0357 C   0  0  0  0  0  0  0  0  0  0  0  0
   -1.9417   -0.9473   -1.1159 S   0  0  0  0  0  0  0  0  0  0  0  0
   -3.6172   -0.5467   -0.9499 C   0  0  0  0  0  0  0  0  0  0  0  0
   -3.7792    0.5774   -0.1421 C   0  0  0  0  0  0  0  0  0  0  0  0
   -2.5443    1.0621    0.4024 C   0  0  0  0  0  0  0  0  0  0  0  0
   -2.5546    2.1801    1.2618 C   0  0  0  0  0  0  0  0  0  0  0  0
   -3.7306    2.8159    1.5367 C   0  0  0  0  0  0  0  0  0  0  0  0
   -4.9385    2.4039    0.9425 C   0  0  0  0  0  0  0  0  0  0  0  0
   -4.9533    1.3198    0.1165 C   0  0  0  0  0  0  0  0  0  0  0  0
   -6.1015    1.0016   -0.5139 F   0  0  0  0  0  0  0  0  0  0  0  0
   -4.6285   -1.3892   -1.5000 C   0  0  0  0  0  0  0  0  0  0  0  0
   -4.5204   -2.0417   -3.1090 S   0  0  0  0  0  0  0  0  0  0  0  0
   -6.0094   -2.8936   -2.8999 C   0  0  0  0  0  0  0  0  0  0  0  0
   -6.5645   -2.6717   -1.6517 C   0  0  0  0  0  0  0  0  0  0  0  0
   -5.7705   -1.8223   -0.8443 C   0  0  0  0  0  0  0  0  0  0  0  0
   -5.9918   -1.4225    0.4419 O   0  0  0  0  0  0  0  0  0  0  0  0
   -6.5411   -2.3576    1.3404 C   0  0  0  0  0  0  0  0  0  0  0  0
   -7.9748   -2.7734    1.0132 C   0  0  0  0  0  0  0  0  0  0  0  0
   -8.0325   -3.7823   -0.1318 C   0  0  0  0  0  0  0  0  0  0  0  0
   -7.7965   -3.2115   -1.3990 O   0  0  0  0  0  0  0  0  0  0  0  0
   -6.5762   -3.6901   -3.9280 C   0  0  0  0  0  0  0  0  0  0  0  0
   -8.0702   -4.5476   -3.7126 S   0  0  0  0  0  0  0  0  0  0  0  0
   -7.9748   -5.1798   -5.3063 C   0  0  0  0  0  0  0  0  0  0  0  0
   -6.8526   -4.7771   -5.9697 C   0  0  0  0  0  0  0  0  0  0  0  0
   -6.0392   -3.9166   -5.1783 C   0  0  0  0  0  0  0  0  0  0  0  0
   -4.8565   -3.3337   -5.5105 O   0  0  0  0  0  0  0  0  0  0  0  0
   -4.4444   -3.4474   -6.8593 C   0  0  0  0  0  0  0  0  0  0  0  0
   -5.5544   -3.0539   -7.8358 C   0  0  0  0  0  0  0  0  0  0  0  0
   -6.4038   -4.2677   -8.2405 C   0  0  0  0  0  0  0  0  0  0  0  0
   -6.5349   -5.2424   -7.2234 O   0  0  0  0  0  0  0  0  0  0  0  0
    9.8456    2.7619    4.9761 H   0  0  0  0  0  0  0  0  0  0  0  0
   11.5694   -0.3065    2.2655 H   0  0  0  0  0  0  0  0  0  0  0  0
   10.5968    0.9396    1.4415 H   0  0  0  0  0  0  0  0  0  0  0  0
   10.1018   -1.4825    0.7818 H   0  0  0  0  0  0  0  0  0  0  0  0
    9.4386   -1.7166    2.4102 H   0  0  0  0  0  0  0  0  0  0  0  0
    7.7193   -1.1681    0.6012 H   0  0  0  0  0  0  0  0  0  0  0  0
    8.4569    0.4501    0.4895 H   0  0  0  0  0  0  0  0  0  0  0  0
    4.7479    5.5199    5.1262 H   0  0  0  0  0  0  0  0  0  0  0  0
    4.5344    5.4158    3.3593 H   0  0  0  0  0  0  0  0  0  0  0  0
    2.4396    6.0244    4.6977 H   0  0  0  0  0  0  0  0  0  0  0  0
    2.4669    4.3780    5.3560 H   0  0  0  0  0  0  0  0  0  0  0  0
    2.4061    4.9866    2.3612 H   0  0  0  0  0  0  0  0  0  0  0  0
    0.9360    4.7337    3.3374 H   0  0  0  0  0  0  0  0  0  0  0  0
    3.1055   -2.5638    0.8629 H   0  0  0  0  0  0  0  0  0  0  0  0
    4.5339   -2.3051   -0.1704 H   0  0  0  0  0  0  0  0  0  0  0  0
    2.9313   -2.0412   -2.1445 H   0  0  0  0  0  0  0  0  0  0  0  0
    3.0050   -3.6673   -1.4399 H   0  0  0  0  0  0  0  0  0  0  0  0
    0.6753   -3.1942   -1.8134 H   0  0  0  0  0  0  0  0  0  0  0  0
    0.9466   -3.0608   -0.0559 H   0  0  0  0  0  0  0  0  0  0  0  0
   -1.6309    2.5319    1.6896 H   0  0  0  0  0  0  0  0  0  0  0  0
   -3.7427    3.6701    2.1961 H   0  0  0  0  0  0  0  0  0  0  0  0
   -5.8504    2.9524    1.1173 H   0  0  0  0  0  0  0  0  0  0  0  0
   -6.5106   -1.8431    2.3044 H   0  0  0  0  0  0  0  0  0  0  0  0
   -5.8990   -3.2508    1.3967 H   0  0  0  0  0  0  0  0  0  0  0  0
   -8.5495   -1.8861    0.7412 H   0  0  0  0  0  0  0  0  0  0  0  0
   -8.4212   -3.2240    1.9003 H   0  0  0  0  0  0  0  0  0  0  0  0
   -9.0361   -4.2057   -0.2163 H   0  0  0  0  0  0  0  0  0  0  0  0
   -7.3186   -4.5994    0.0549 H   0  0  0  0  0  0  0  0  0  0  0  0
   -8.7283   -5.8453   -5.6747 H   0  0  0  0  0  0  0  0  0  0  0  0
   -4.1030   -4.4710   -7.0635 H   0  0  0  0  0  0  0  0  0  0  0  0
   -3.5944   -2.7664   -6.9357 H   0  0  0  0  0  0  0  0  0  0  0  0
   -5.1276   -2.6096   -8.7345 H   0  0  0  0  0  0  0  0  0  0  0  0
   -6.1782   -2.2998   -7.3501 H   0  0  0  0  0  0  0  0  0  0  0  0
   -5.9290   -4.8078   -9.0640 H   0  0  0  0  0  0  0  0  0  0  0  0
   -7.3989   -3.9329   -8.5680 H   0  0  0  0  0  0  0  0  0  0  0  0
  1  2  1  0  0  0  0
  2  3  1  0  0  0  0
  3  4  2  0  0  0  0
  4  5  1  0  0  0  0
  5  6  1  0  0  0  0
  6  7  1  0  0  0  0
  7  8  1  0  0  0  0
  8  9  1  0  0  0  0
  9 10  1  0  0  0  0
  3 11  1  0  0  0  0
 11 12  1  0  0  0  0
 12 13  1  0  0  0  0
 13 14  2  0  0  0  0
 14 15  1  0  0  0  0
 15 16  1  0  0  0  0
 16 17  1  0  0  0  0
 17 18  1  0  0  0  0
 18 19  1  0  0  0  0
 19 20  1  0  0  0  0
 13 21  1  0  0  0  0
 21 22  1  0  0  0  0
 22 23  1  0  0  0  0
 23 24  2  0  0  0  0
 24 25  1  0  0  0  0
 25 26  1  0  0  0  0
 26 27  1  0  0  0  0
 27 28  1  0  0  0  0
 28 29  1  0  0  0  0
 29 30  1  0  0  0  0
 23 31  1  0  0  0  0
 31 32  1  0  0  0  0
 32 33  1  0  0  0  0
 33 34  2  0  0  0  0
 34 35  1  0  0  0  0
 35 36  1  0  0  0  0
 36 37  2  0  0  0  0
 37 38  1  0  0  0  0
 38 39  2  0  0  0  0
 39 40  1  0  0  0  0
 33 41  1  0  0  0  0
 41 42  1  0  0  0  0
 42 43  1  0  0  0  0
 43 44  2  0  0  0  0
 44 45  1  0  0  0  0
 45 46  1  0  0  0  0
 46 47  1  0  0  0  0
 47 48  1  0  0  0  0
 48 49  1  0  0  0  0
 49 50  1  0  0  0  0
 43 51  1  0  0  0  0
 51 52  1  0  0  0  0
 52 53  1  0  0  0  0
 53 54  2  0  0  0  0
 54 55  1  0  0  0  0
 55 56  1  0  0  0  0
 56 57  1  0  0  0  0
 57 58  1  0  0  0  0
 58 59  1  0  0  0  0
 59 60  1  0  0  0  0
  5  1  2  0  0  0  0
 15 11  2  0  0  0  0
 25 21  2  0  0  0  0
 35 31  2  0  0  0  0
 45 41  2  0  0  0  0
 55 51  2  0  0  0  0
 10  4  1  0  0  0  0
 20 14  1  0  0  0  0
 30 24  1  0  0  0  0
 39 34  1  0  0  0  0
 50 44  1  0  0  0  0
 60 54  1  0  0  0  0
  1 61  1  0  0  0  0
  7 62  1  0  0  0  0
  7 63  1  0  0  0  0
  8 64  1  0  0  0  0
  8 65  1  0  0  0  0
  9 66  1  0  0  0  0
  9 67  1  0  0  0  0
 17 68  1  0  0  0  0
 17 69  1  0  0  0  0
 18 70  1  0  0  0  0
 18 71  1  0  0  0  0
 19 72  1  0  0  0  0
 19 73  1  0  0  0  0
 27 74  1  0  0  0  0
 27 75  1  0  0  0  0
 28 76  1  0  0  0  0
 28 77  1  0  0  0  0
 29 78  1  0  0  0  0
 29 79  1  0  0  0  0
 36 80  1  0  0  0  0
 37 81  1  0  0  0  0
 38 82  1  0  0  0  0
 47 83  1  0  0  0  0
 47 84  1  0  0  0  0
 48 85  1  0  0  0  0
 48 86  1  0  0  0  0
 49 87  1  0  0  0  0
 49 88  1  0  0  0  0
 53 89  1  0  0  0  0
 57 90  1  0  0  0  0
 57 91  1  0  0  0  0
 58 92  1  0  0  0  0
 58 93  1  0  0  0  0
 59 94  1  0  0  0  0
 59 95  1  0  0  0  0
M  END
