225

C         -9.96150        6.69750       -1.84560
C         -8.79300        6.60370       -1.17900
C         -8.45850        5.26090       -0.83780
C         -7.31710        4.79340       -0.17050
C         -6.24390        5.68000        0.25170
S         -5.44620        6.72760       -0.88390
C         -4.31750        7.28800        0.30090
C         -3.23850        8.25640       -0.03840
C         -3.66810        9.25740       -1.10370
C         -4.56260        6.69250        1.50210
Cl        -3.64170        6.98910        2.91950
C         -5.65350        5.78300        1.48000
Cl        -6.21070        4.97930        2.89070
C         -7.22010        3.42060        0.02380
C         -8.20190        2.50560       -0.42690
C         -9.35710        2.97570       -1.07310
C        -10.37890        2.05410       -1.54200
S         -9.96980        0.70280       -2.56020
C        -11.61140        0.16460       -2.64690
C        -11.97070       -1.08840       -3.36530
C        -11.72880       -2.30970       -2.47450
C        -12.41660        0.98990       -1.92070
C        -11.72420        2.06450       -1.29880
Cl       -12.51210        3.18780       -0.27300
Cl       -14.11090        0.77320       -1.75820
C         -9.45620        4.34990       -1.26290
S        -10.74180        5.17560       -2.09570
C         -7.83870        1.16320       -0.14490
C         -6.63230        1.04920        0.47380
S         -5.87870        2.59940        0.76340
C         -5.94920       -0.16070        0.82090
C         -5.99010       -1.33670        0.13650
C         -5.12300       -2.32670        0.66350
C         -4.86730       -3.60970        0.14500
C         -5.65280       -4.14220       -0.95270
S         -4.90060       -4.88240       -2.33500
C         -6.42250       -5.21390       -3.08600
C         -6.49770       -5.94330       -4.38140
C         -6.38850       -7.45410       -4.16100
C         -7.44560       -4.78130       -2.29570
Cl        -9.10410       -4.95130       -2.70110
C         -7.01530       -4.16760       -1.08990
Cl        -8.12570       -3.60880        0.09520
C         -3.80960       -4.31150        0.71180
C         -3.08950       -3.83050        1.83160
C         -3.41360       -2.59280        2.41730
C         -2.68180       -2.11080        3.57520
S         -1.99700       -0.51260        3.61680
C         -1.27540       -0.77240        5.16510
C         -0.50760        0.30200        5.85350
C         -1.42030        1.12300        6.76720
C         -1.57150       -2.02220        5.62190
C         -2.36430       -2.78460        4.72500
Cl        -2.92280       -4.36090        5.11530
Cl        -1.02970       -2.63890        7.12690
C         -4.39900       -1.84810        1.78310
S         -4.86960       -0.22520        2.19380
C         -1.99740       -4.67070        2.15180
C         -1.87670       -5.74980        1.32730
S         -3.14500       -5.81630        0.12970
C         -0.71510       -6.59090        1.34370
C          0.01470       -6.87580        2.45830
C          1.33890       -7.29040        2.17670
C          2.41080       -7.39770        3.08300
C          2.22490       -7.27560        4.51910
S          1.30430       -5.97720        5.22500
C          1.62850       -6.51020        6.83870
C          1.02600       -5.81050        8.00590
C         -0.46360       -6.13840        8.13020
C          2.40500       -7.62940        6.81690
Cl         2.92920       -8.46150        8.22320
C          2.75610       -8.05710        5.50750
Cl         3.69130       -9.46360        5.22010
C          3.68370       -7.45690        2.53310
C          3.92550       -7.48040        1.13600
C          2.84530       -7.50020        0.23430
C          3.03590       -7.44770       -1.20600
S          4.03800       -6.23390       -1.95150
C          3.65280       -6.77840       -3.54860
C          4.27400       -6.13700       -4.73930
C          5.77440       -6.42760       -4.80230
C          2.79840       -7.83820       -3.49120
C          2.43500       -8.21010       -2.16790
Cl         1.39940       -9.53320       -1.83170
Cl         2.19500       -8.66240       -4.86990
C          1.57420       -7.37420        0.78260
S          0.13750       -6.99850       -0.13040
C          5.28110       -7.22190        0.83370
C          6.03780       -6.89600        1.92760
S          5.15590       -7.17590        3.42560
C          7.16640       -6.03130        1.91090
S          7.39260       -5.08260        0.47080
C          8.17540       -3.79970        1.33600
C          8.41780       -4.18150        2.65470
C          7.85520       -5.45930        2.98650
C          7.99540       -5.97050        4.29250
C          8.67090       -5.24520        5.23160
C          9.23560       -3.99150        4.92300
C          9.10840       -3.47970        3.66590
F          9.67450       -2.29420        3.36470
C          8.04610       -2.48980        0.77850
C          7.48600       -1.43080        1.43530
C          6.97490       -0.43750        0.56630
C          6.13540        0.63760        0.90450
C          5.81750        0.93510        2.29030
S          4.16610        1.05270        2.82500
C          4.63620        1.35920        4.46360
C          3.61170        1.57350        5.52370
C          2.71460        2.76960        5.20570
C          5.99460        1.37380        4.56990
Cl         6.84220        1.65480        6.03510
C          6.66940        1.12660        3.34230
Cl         8.38020        1.13740        3.20680
C          5.54980        1.33010       -0.14750
C          5.82690        1.05740       -1.50830
C          6.66700       -0.01890       -1.84380
C          6.86750       -0.41300       -3.23240
S          7.60800        0.65490       -4.38520
C          7.45460       -0.49790       -5.66730
C          7.98410       -0.21600       -7.03000
C          9.45880       -0.61200       -7.13610
C          6.86530       -1.63790       -5.20940
C          6.52470       -1.59310       -3.83060
Cl         5.69420       -2.87190       -3.04310
Cl         6.53820       -3.00280       -6.19240
C          7.20120       -0.75510       -0.79690
S          8.09810       -2.24060       -0.95440
C          5.05360        1.86920       -2.38090
C          4.18760        2.68690       -1.72460
S          4.33650        2.56400        0.01640
C          3.13410        3.50720       -2.24920
C          1.89840        3.63330       -1.69580
C          1.02360        4.45580       -2.44820
C         -0.32420        4.74280       -2.18170
C         -1.01760        4.01760       -1.12760
S         -1.81370        4.77350        0.21860
C         -2.24160        3.24970        0.92370
C         -2.88050        3.17530        2.26380
C         -1.83300        3.33360        3.36790
C         -1.80810        2.22640        0.13470
Cl        -2.05740        0.56210        0.47100
C         -1.11170        2.65780       -1.02450
Cl        -0.48900        1.56340       -2.19070
C         -0.94880        5.65300       -3.02080
C         -0.29590        6.25410       -4.12380
C          1.04020        5.93220       -4.41350
C          1.74000        6.54550       -5.53060
S          2.55050        5.59230       -6.73600
C          3.08500        6.99520       -7.59690
C          3.85200        6.87520       -8.86720
C          2.91030        6.70850      -10.06240
C          2.65030        8.12790       -6.97560
C          1.89170        7.87710       -5.80130
Cl         1.30410        9.13640       -4.79390
Cl         2.98580        9.71590       -7.53320
C          1.66560        5.01560       -3.57690
S          3.30300        4.43250       -3.72530
C         -1.18460        7.09410       -4.85800
C         -2.42510        7.13250       -4.33150
S         -2.61380        6.14660       -2.92160
H        -10.43990        7.58340       -2.21500
H         -8.17670        7.44750       -0.92940
H         -2.36860        7.69550       -0.39570
H         -2.94240        8.77600        0.87530
H         -4.51810        9.84110       -0.75970
H         -3.95300        8.73620       -2.01420
H         -2.85010        9.93510       -1.33280
H        -11.36710       -1.17510       -4.27070
H        -13.02390       -1.04240       -3.64770
H        -10.68270       -2.36310       -2.18240
H        -11.98690       -3.21970       -3.00930
H        -12.33790       -2.24880       -1.57590
H         -8.45560        0.31450       -0.37350
H         -6.56720       -1.46470       -0.76020
H         -5.68540       -5.61290       -5.03090
H         -7.44930       -5.70950       -4.86230
H         -6.44350       -7.97490       -5.11300
H         -5.44270       -7.69730       -3.68280
H         -7.19910       -7.80260       -3.52580
H          0.28510       -0.15600        6.44890
H         -0.05400        0.95540        5.10710
H         -2.23190        1.56180        6.19240
H         -0.85580        1.92100        7.24180
H         -1.84680        0.49020        7.54110
H         -1.26890       -4.44150        2.90700
H         -0.37290       -6.73410        3.44920
H          1.14630       -4.73180        7.88550
H          1.55120       -6.12280        8.90980
H         -0.99480       -5.82010        7.23640
H         -0.60730       -7.20830        8.25900
H         -0.88790       -5.62340        8.98800
H          3.78170       -6.51720       -5.63570
H          4.12250       -5.05620       -4.69120
H          5.95270       -7.49940       -4.84460
H          6.20530       -5.96740       -5.68710
H          6.27210       -6.02400       -3.92340
H          5.66510       -7.14830       -0.16710
H          7.58730       -6.94040        4.52830
H          8.79300       -5.63390        6.23030
H          9.77890       -3.43710        5.67140
H          7.33220       -1.42120        2.49810
H          4.12660        1.73290        6.47220
H          2.99420        0.67570        5.61380
H          2.20110        2.61490        4.25950
H          1.97440        2.90180        5.99030
H          3.30780        3.67740        5.13100
H          7.87620        0.84790       -7.24760
H          7.40070       -0.78380       -7.75760
H          9.57950       -1.67310       -6.93320
H          9.83000       -0.40380       -8.13580
H         10.05280       -0.05100       -6.41860
H          5.09980        1.80720       -3.45320
H          1.61770        3.14180       -0.78200
H         -3.37510        2.20890        2.36650
H         -3.62680        3.96250        2.35970
H         -1.10090        2.53220        3.30610
H         -2.31470        3.29580        4.34040
H         -1.32120        4.28820        3.27020
H          4.51850        6.01340       -8.80670
H          4.45380        7.77620       -8.99940
H          3.48470        6.62060      -10.98060
H          2.30350        5.81420       -9.94220
H          2.25060        7.56860      -10.14530
H         -0.89890        7.62680       -5.74580
H         -3.27500        7.68060       -4.68850
