109

C          4.36170        7.81920        7.09620
S          3.32740        6.47060        7.08050
C          3.68640        6.10190        5.42600
C          4.61990        7.00680        4.91790
C          4.99570        8.00450        5.88680
C          5.92680        9.01980        5.55970
C          6.49310        9.03680        4.32350
C          6.17860        8.04200        3.37350
C          5.28020        7.06120        3.66810
F          5.04960        6.10920        2.73820
C          2.99430        5.01040        4.81600
C          2.62700        4.82390        3.51620
C          1.88530        3.63700        3.30040
C          1.33390        3.17120        2.09380
C          1.42840        3.94830        0.86930
S          2.05010        3.25670       -0.59840
C          1.81570        4.72550       -1.48160
C          2.12060        4.80570       -2.93640
C          0.95680        4.25570       -3.76470
C          1.27520        5.68260       -0.67580
Cl         0.88750        7.27000       -1.20070
C          1.05880        5.24780        0.65890
Cl         0.32200        6.24590        1.84540
C          0.67720        1.94950        2.13080
C          0.50760        1.20090        3.32000
C          1.03940        1.67580        4.53230
C          0.86440        0.93430        5.77020
S         -0.71800        0.45320        6.31420
C         -0.08950       -0.29720        7.74100
C         -0.98850       -0.91880        8.75200
C         -1.40070        0.09930        9.81790
C          1.26600       -0.16760        7.78280
C          1.81090        0.52480        6.66740
Cl         3.49850        0.72790        6.45170
Cl         2.24480       -0.79150        9.04630
C          1.71890        2.88570        4.49060
S          2.42760        3.70450        5.84810
C         -0.20460       -0.00090        3.09510
C         -0.59680       -0.17120        1.79790
S         -0.07130        1.15640        0.77420
C         -1.31550       -1.26460        1.23650
S         -1.02070       -1.75380       -0.39490
C         -2.10020       -3.10590       -0.28260
C         -2.74030       -3.11490        0.96190
C         -2.27730       -2.08010        1.84020
C         -2.85590       -1.92920        3.11960
C         -3.86040       -2.76530        3.51030
C         -4.36380       -3.75320        2.64280
C         -3.82760       -3.90420        1.39820
F         -4.39250       -4.78880        0.54960
C         -2.18240       -4.03820       -1.35090
S         -2.13320       -3.49610       -2.99730
C         -2.21020       -5.10910       -3.62960
C         -2.30560       -6.03600       -2.58730
C         -2.23880       -5.43410       -1.28940
C         -2.17510       -6.25030       -0.13950
C         -2.30680       -7.60160       -0.26290
C         -2.53300       -8.19700       -1.51920
C         -2.53010       -7.43010       -2.64590
F         -2.77840       -8.01470       -3.83750
C         -2.13520       -5.33230       -5.03080
S         -2.97070       -4.28640       -6.12720
C         -2.42170       -5.14920       -7.53020
C         -1.56260       -6.18890       -7.14870
C         -1.39340       -6.29010       -5.72840
C         -0.47640       -7.21080       -5.17970
C          0.22430       -8.04100       -6.00320
C          0.07020       -7.96680       -7.39910
C         -0.78330       -7.05510       -7.94700
F         -0.83030       -6.95490       -9.29350
C         -2.94180       -4.80080       -8.80710
S         -3.31340       -6.01270       -9.99230
C         -3.98250       -4.88270      -11.06810
C         -3.93550       -3.60050      -10.56370
C         -3.34750       -3.53670       -9.25690
C         -3.19890       -2.28240       -8.62840
C         -3.64110       -1.15320       -9.25470
C         -4.24680       -1.20240      -10.52790
C         -4.38010       -2.39850      -11.16140
F         -4.94060       -2.46300      -12.38820
H          4.45920        8.41290        7.98270
H          6.17420        9.75890        6.30550
H          7.20440        9.80200        4.05490
H          6.65730        8.04170        2.40720
H          2.86180        5.51200        2.72890
H          2.29880        5.84950       -3.20110
H          3.02270        4.23020       -3.15080
H          0.05360        4.82910       -3.57180
H          1.18990        4.31830       -4.82420
H          0.77000        3.21590       -3.50720
H         -0.46090       -1.74840        9.22680
H         -1.87850       -1.30730        8.25440
H         -2.05010       -0.37090       10.55120
H         -0.52210        0.48660       10.32730
H         -1.93260        0.93050        9.36120
H         -0.36890       -0.73860        3.85760
H         -2.52570       -1.12970        3.76190
H         -4.31090       -2.65340        4.48400
H         -5.19730       -4.37010        2.93780
H         -2.02140       -5.79550        0.82610
H         -2.26370       -8.23380        0.61010
H         -2.71010       -9.25740       -1.60010
H         -0.32220       -7.23190       -4.11270
H          0.92650       -8.75000       -5.59370
H          0.64750       -8.60370       -8.04990
H         -4.37160       -5.19840      -12.01510
H         -2.72790       -2.21830       -7.66050
H         -3.52780       -0.19290       -8.77620
H         -4.59380       -0.29920      -11.00370
