
  xtb     03012207083D
 energy: -218.711463427802 gnorm: 0.000297128447 xtb: 6.4.1 (unknown)
109123  0     0  0            999 V2000
    4.3617    7.8192    7.0962 C   0  0  0  0  0  0  0  0  0  0  0  0
    3.3274    6.4706    7.0805 S   0  0  0  0  0  0  0  0  0  0  0  0
    3.6864    6.1019    5.4260 C   0  0  0  0  0  0  0  0  0  0  0  0
    4.6199    7.0068    4.9179 C   0  0  0  0  0  0  0  0  0  0  0  0
    4.9957    8.0045    5.8868 C   0  0  0  0  0  0  0  0  0  0  0  0
    5.9268    9.0198    5.5597 C   0  0  0  0  0  0  0  0  0  0  0  0
    6.4931    9.0368    4.3235 C   0  0  0  0  0  0  0  0  0  0  0  0
    6.1786    8.0420    3.3735 C   0  0  0  0  0  0  0  0  0  0  0  0
    5.2802    7.0612    3.6681 C   0  0  0  0  0  0  0  0  0  0  0  0
    5.0496    6.1092    2.7382 F   0  0  0  0  0  0  0  0  0  0  0  0
    2.9943    5.0104    4.8160 C   0  0  0  0  0  0  0  0  0  0  0  0
    2.6270    4.8239    3.5162 C   0  0  0  0  0  0  0  0  0  0  0  0
    1.8853    3.6370    3.3004 C   0  0  0  0  0  0  0  0  0  0  0  0
    1.3339    3.1712    2.0938 C   0  0  0  0  0  0  0  0  0  0  0  0
    1.4284    3.9483    0.8693 C   0  0  0  0  0  0  0  0  0  0  0  0
    2.0501    3.2567   -0.5984 S   0  0  0  0  0  0  0  0  0  0  0  0
    1.8157    4.7255   -1.4816 C   0  0  0  0  0  0  0  0  0  0  0  0
    2.1206    4.8057   -2.9364 C   0  0  0  0  0  0  0  0  0  0  0  0
    0.9568    4.2557   -3.7647 C   0  0  0  0  0  0  0  0  0  0  0  0
    1.2752    5.6826   -0.6758 C   0  0  0  0  0  0  0  0  0  0  0  0
    0.8875    7.2700   -1.2007 Cl  0  0  0  0  0  0  0  0  0  0  0  0
    1.0588    5.2478    0.6589 C   0  0  0  0  0  0  0  0  0  0  0  0
    0.3220    6.2459    1.8454 Cl  0  0  0  0  0  0  0  0  0  0  0  0
    0.6772    1.9495    2.1308 C   0  0  0  0  0  0  0  0  0  0  0  0
    0.5076    1.2009    3.3200 C   0  0  0  0  0  0  0  0  0  0  0  0
    1.0394    1.6758    4.5323 C   0  0  0  0  0  0  0  0  0  0  0  0
    0.8644    0.9343    5.7702 C   0  0  0  0  0  0  0  0  0  0  0  0
   -0.7180    0.4532    6.3142 S   0  0  0  0  0  0  0  0  0  0  0  0
   -0.0895   -0.2972    7.7410 C   0  0  0  0  0  0  0  0  0  0  0  0
   -0.9885   -0.9188    8.7520 C   0  0  0  0  0  0  0  0  0  0  0  0
   -1.4007    0.0993    9.8179 C   0  0  0  0  0  0  0  0  0  0  0  0
    1.2660   -0.1676    7.7828 C   0  0  0  0  0  0  0  0  0  0  0  0
    1.8109    0.5248    6.6674 C   0  0  0  0  0  0  0  0  0  0  0  0
    3.4985    0.7279    6.4517 Cl  0  0  0  0  0  0  0  0  0  0  0  0
    2.2448   -0.7915    9.0463 Cl  0  0  0  0  0  0  0  0  0  0  0  0
    1.7189    2.8857    4.4906 C   0  0  0  0  0  0  0  0  0  0  0  0
    2.4276    3.7045    5.8481 S   0  0  0  0  0  0  0  0  0  0  0  0
   -0.2046   -0.0009    3.0951 C   0  0  0  0  0  0  0  0  0  0  0  0
   -0.5968   -0.1712    1.7979 C   0  0  0  0  0  0  0  0  0  0  0  0
   -0.0713    1.1564    0.7742 S   0  0  0  0  0  0  0  0  0  0  0  0
   -1.3155   -1.2646    1.2365 C   0  0  0  0  0  0  0  0  0  0  0  0
   -1.0207   -1.7538   -0.3949 S   0  0  0  0  0  0  0  0  0  0  0  0
   -2.1002   -3.1059   -0.2826 C   0  0  0  0  0  0  0  0  0  0  0  0
   -2.7403   -3.1149    0.9619 C   0  0  0  0  0  0  0  0  0  0  0  0
   -2.2773   -2.0801    1.8402 C   0  0  0  0  0  0  0  0  0  0  0  0
   -2.8559   -1.9292    3.1196 C   0  0  0  0  0  0  0  0  0  0  0  0
   -3.8604   -2.7653    3.5103 C   0  0  0  0  0  0  0  0  0  0  0  0
   -4.3638   -3.7532    2.6428 C   0  0  0  0  0  0  0  0  0  0  0  0
   -3.8276   -3.9042    1.3982 C   0  0  0  0  0  0  0  0  0  0  0  0
   -4.3925   -4.7888    0.5496 F   0  0  0  0  0  0  0  0  0  0  0  0
   -2.1824   -4.0382   -1.3509 C   0  0  0  0  0  0  0  0  0  0  0  0
   -2.1332   -3.4961   -2.9973 S   0  0  0  0  0  0  0  0  0  0  0  0
   -2.2102   -5.1091   -3.6296 C   0  0  0  0  0  0  0  0  0  0  0  0
   -2.3056   -6.0360   -2.5873 C   0  0  0  0  0  0  0  0  0  0  0  0
   -2.2388   -5.4341   -1.2894 C   0  0  0  0  0  0  0  0  0  0  0  0
   -2.1751   -6.2503   -0.1395 C   0  0  0  0  0  0  0  0  0  0  0  0
   -2.3068   -7.6016   -0.2629 C   0  0  0  0  0  0  0  0  0  0  0  0
   -2.5330   -8.1970   -1.5192 C   0  0  0  0  0  0  0  0  0  0  0  0
   -2.5301   -7.4301   -2.6459 C   0  0  0  0  0  0  0  0  0  0  0  0
   -2.7784   -8.0147   -3.8375 F   0  0  0  0  0  0  0  0  0  0  0  0
   -2.1352   -5.3323   -5.0308 C   0  0  0  0  0  0  0  0  0  0  0  0
   -2.9707   -4.2864   -6.1272 S   0  0  0  0  0  0  0  0  0  0  0  0
   -2.4217   -5.1492   -7.5302 C   0  0  0  0  0  0  0  0  0  0  0  0
   -1.5626   -6.1889   -7.1487 C   0  0  0  0  0  0  0  0  0  0  0  0
   -1.3934   -6.2901   -5.7284 C   0  0  0  0  0  0  0  0  0  0  0  0
   -0.4764   -7.2108   -5.1797 C   0  0  0  0  0  0  0  0  0  0  0  0
    0.2243   -8.0410   -6.0032 C   0  0  0  0  0  0  0  0  0  0  0  0
    0.0702   -7.9668   -7.3991 C   0  0  0  0  0  0  0  0  0  0  0  0
   -0.7833   -7.0551   -7.9470 C   0  0  0  0  0  0  0  0  0  0  0  0
   -0.8303   -6.9549   -9.2935 F   0  0  0  0  0  0  0  0  0  0  0  0
   -2.9418   -4.8008   -8.8071 C   0  0  0  0  0  0  0  0  0  0  0  0
   -3.3134   -6.0127   -9.9923 S   0  0  0  0  0  0  0  0  0  0  0  0
   -3.9825   -4.8827  -11.0681 C   0  0  0  0  0  0  0  0  0  0  0  0
   -3.9355   -3.6005  -10.5637 C   0  0  0  0  0  0  0  0  0  0  0  0
   -3.3475   -3.5367   -9.2569 C   0  0  0  0  0  0  0  0  0  0  0  0
   -3.1989   -2.2824   -8.6284 C   0  0  0  0  0  0  0  0  0  0  0  0
   -3.6411   -1.1532   -9.2547 C   0  0  0  0  0  0  0  0  0  0  0  0
   -4.2468   -1.2024  -10.5279 C   0  0  0  0  0  0  0  0  0  0  0  0
   -4.3801   -2.3985  -11.1614 C   0  0  0  0  0  0  0  0  0  0  0  0
   -4.9406   -2.4630  -12.3882 F   0  0  0  0  0  0  0  0  0  0  0  0
    4.4592    8.4129    7.9827 H   0  0  0  0  0  0  0  0  0  0  0  0
    6.1742    9.7589    6.3055 H   0  0  0  0  0  0  0  0  0  0  0  0
    7.2044    9.8020    4.0549 H   0  0  0  0  0  0  0  0  0  0  0  0
    6.6573    8.0417    2.4072 H   0  0  0  0  0  0  0  0  0  0  0  0
    2.8618    5.5120    2.7289 H   0  0  0  0  0  0  0  0  0  0  0  0
    2.2988    5.8495   -3.2011 H   0  0  0  0  0  0  0  0  0  0  0  0
    3.0227    4.2302   -3.1508 H   0  0  0  0  0  0  0  0  0  0  0  0
    0.0536    4.8291   -3.5718 H   0  0  0  0  0  0  0  0  0  0  0  0
    1.1899    4.3183   -4.8242 H   0  0  0  0  0  0  0  0  0  0  0  0
    0.7700    3.2159   -3.5072 H   0  0  0  0  0  0  0  0  0  0  0  0
   -0.4609   -1.7484    9.2268 H   0  0  0  0  0  0  0  0  0  0  0  0
   -1.8785   -1.3073    8.2544 H   0  0  0  0  0  0  0  0  0  0  0  0
   -2.0501   -0.3709   10.5512 H   0  0  0  0  0  0  0  0  0  0  0  0
   -0.5221    0.4866   10.3273 H   0  0  0  0  0  0  0  0  0  0  0  0
   -1.9326    0.9305    9.3612 H   0  0  0  0  0  0  0  0  0  0  0  0
   -0.3689   -0.7386    3.8576 H   0  0  0  0  0  0  0  0  0  0  0  0
   -2.5257   -1.1297    3.7619 H   0  0  0  0  0  0  0  0  0  0  0  0
   -4.3109   -2.6534    4.4840 H   0  0  0  0  0  0  0  0  0  0  0  0
   -5.1973   -4.3701    2.9378 H   0  0  0  0  0  0  0  0  0  0  0  0
   -2.0214   -5.7955    0.8261 H   0  0  0  0  0  0  0  0  0  0  0  0
   -2.2637   -8.2338    0.6101 H   0  0  0  0  0  0  0  0  0  0  0  0
   -2.7101   -9.2574   -1.6001 H   0  0  0  0  0  0  0  0  0  0  0  0
   -0.3222   -7.2319   -4.1127 H   0  0  0  0  0  0  0  0  0  0  0  0
    0.9265   -8.7500   -5.5937 H   0  0  0  0  0  0  0  0  0  0  0  0
    0.6475   -8.6037   -8.0499 H   0  0  0  0  0  0  0  0  0  0  0  0
   -4.3716   -5.1984  -12.0151 H   0  0  0  0  0  0  0  0  0  0  0  0
   -2.7279   -2.2183   -7.6605 H   0  0  0  0  0  0  0  0  0  0  0  0
   -3.5278   -0.1929   -8.7762 H   0  0  0  0  0  0  0  0  0  0  0  0
   -4.5938   -0.2992  -11.0037 H   0  0  0  0  0  0  0  0  0  0  0  0
  1  2  1  0  0  0  0
  2  3  1  0  0  0  0
  3  4  2  0  0  0  0
  4  5  1  0  0  0  0
  5  6  1  0  0  0  0
  6  7  2  0  0  0  0
  7  8  1  0  0  0  0
  8  9  2  0  0  0  0
  9 10  1  0  0  0  0
  3 11  1  0  0  0  0
 11 12  2  0  0  0  0
 12 13  1  0  0  0  0
 13 14  2  0  0  0  0
 14 15  1  0  0  0  0
 15 16  1  0  0  0  0
 16 17  1  0  0  0  0
 17 18  1  0  0  0  0
 18 19  1  0  0  0  0
 17 20  2  0  0  0  0
 20 21  1  0  0  0  0
 20 22  1  0  0  0  0
 22 23  1  0  0  0  0
 14 24  1  0  0  0  0
 24 25  2  0  0  0  0
 25 26  1  0  0  0  0
 26 27  1  0  0  0  0
 27 28  1  0  0  0  0
 28 29  1  0  0  0  0
 29 30  1  0  0  0  0
 30 31  1  0  0  0  0
 29 32  2  0  0  0  0
 32 33  1  0  0  0  0
 33 34  1  0  0  0  0
 32 35  1  0  0  0  0
 26 36  2  0  0  0  0
 36 37  1  0  0  0  0
 25 38  1  0  0  0  0
 38 39  2  0  0  0  0
 39 40  1  0  0  0  0
 39 41  1  0  0  0  0
 41 42  1  0  0  0  0
 42 43  1  0  0  0  0
 43 44  2  0  0  0  0
 44 45  1  0  0  0  0
 45 46  1  0  0  0  0
 46 47  2  0  0  0  0
 47 48  1  0  0  0  0
 48 49  2  0  0  0  0
 49 50  1  0  0  0  0
 43 51  1  0  0  0  0
 51 52  1  0  0  0  0
 52 53  1  0  0  0  0
 53 54  2  0  0  0  0
 54 55  1  0  0  0  0
 55 56  1  0  0  0  0
 56 57  2  0  0  0  0
 57 58  1  0  0  0  0
 58 59  2  0  0  0  0
 59 60  1  0  0  0  0
 53 61  1  0  0  0  0
 61 62  1  0  0  0  0
 62 63  1  0  0  0  0
 63 64  2  0  0  0  0
 64 65  1  0  0  0  0
 65 66  1  0  0  0  0
 66 67  2  0  0  0  0
 67 68  1  0  0  0  0
 68 69  2  0  0  0  0
 69 70  1  0  0  0  0
 63 71  1  0  0  0  0
 71 72  1  0  0  0  0
 72 73  1  0  0  0  0
 73 74  2  0  0  0  0
 74 75  1  0  0  0  0
 75 76  1  0  0  0  0
 76 77  2  0  0  0  0
 77 78  1  0  0  0  0
 78 79  2  0  0  0  0
 79 80  1  0  0  0  0
  5  1  2  0  0  0  0
 37 11  1  0  0  0  0
 45 41  2  0  0  0  0
 55 51  2  0  0  0  0
 65 61  2  0  0  0  0
 75 71  2  0  0  0  0
  9  4  1  0  0  0  0
 36 13  1  0  0  0  0
 49 44  1  0  0  0  0
 59 54  1  0  0  0  0
 69 64  1  0  0  0  0
 79 74  1  0  0  0  0
 22 15  2  0  0  0  0
 40 24  1  0  0  0  0
 33 27  2  0  0  0  0
  1 81  1  0  0  0  0
  6 82  1  0  0  0  0
  7 83  1  0  0  0  0
  8 84  1  0  0  0  0
 12 85  1  0  0  0  0
 18 86  1  0  0  0  0
 18 87  1  0  0  0  0
 19 88  1  0  0  0  0
 19 89  1  0  0  0  0
 19 90  1  0  0  0  0
 30 91  1  0  0  0  0
 30 92  1  0  0  0  0
 31 93  1  0  0  0  0
 31 94  1  0  0  0  0
 31 95  1  0  0  0  0
 38 96  1  0  0  0  0
 46 97  1  0  0  0  0
 47 98  1  0  0  0  0
 48 99  1  0  0  0  0
 56100  1  0  0  0  0
 57101  1  0  0  0  0
 58102  1  0  0  0  0
 66103  1  0  0  0  0
 67104  1  0  0  0  0
 68105  1  0  0  0  0
 73106  1  0  0  0  0
 76107  1  0  0  0  0
 77108  1  0  0  0  0
 78109  1  0  0  0  0
M  END
