167

C          6.96310      -10.98720        7.85470
C          6.72390       -9.66230        7.77320
C          5.35810       -9.36330        7.49720
C          4.76700       -8.10770        7.28580
C          5.53380       -6.87540        7.38560
S          6.43080       -6.48310        8.82290
C          6.95890       -4.96720        8.17620
C          7.87620       -4.07800        8.94080
C          9.33460       -4.49990        8.74600
C          6.47060       -4.79620        6.91570
Cl         6.78890       -3.41760        5.94540
C          5.65710       -5.87140        6.46610
Cl         4.98260       -5.91420        4.89120
C          3.41370       -8.09180        6.97510
C          2.63290       -9.26820        6.85940
C          3.22540      -10.52470        7.06800
C          2.46110      -11.75570        6.94790
S          1.57990      -12.13290        5.49530
C          1.04470      -13.65580        6.11970
C          0.22430      -14.58290        5.29290
C          1.11120      -15.42300        4.37070
C          1.53200      -13.84800        7.37760
C          2.33190      -12.77300        7.85170
Cl         2.98490      -12.74390        9.43590
Cl         1.21340      -15.24300        8.32460
C          4.58020      -10.53980        7.38090
S          5.55760      -11.96200        7.60770
C          1.27780       -8.98140        6.56180
C          1.01030       -7.64580        6.45750
S          2.44620       -6.67030        6.72530
C         -0.20620       -6.98810        6.11670
S         -0.13140       -5.41610        5.40010
C         -1.84860       -5.31310        5.20910
C         -2.45980       -6.48410        5.66610
C         -1.52980       -7.42750        6.21830
C         -2.00950       -8.62260        6.79810
C         -3.34010       -8.91680        6.74440
C         -4.24820       -8.06230        6.08990
C         -3.81260       -6.88160        5.56660
F         -4.68940       -6.09620        4.90730
C         -2.41340       -4.13900        4.63640
S         -1.61910       -3.38130        3.30330
C         -2.80870       -2.13280        3.17340
C         -3.77260       -2.26780        4.17980
C         -3.54150       -3.40830        5.02120
C         -4.34640       -3.64010        6.15600
C         -5.38470       -2.80090        6.43130
C         -5.64630       -1.68950        5.61010
C         -4.85310       -1.42810        4.53200
F         -5.10190       -0.30950        3.81880
C         -2.64920       -1.19610        2.11020
C         -3.56800       -0.45850        1.42100
C         -3.00530        0.31980        0.38060
C         -3.67150        1.17240       -0.51920
C         -5.12020        1.27660       -0.53370
S         -5.91940        2.81840       -0.46800
C         -7.48950        2.09660       -0.55830
C         -8.71690        2.93780       -0.60250
C         -8.88970        3.57480       -1.98330
C         -7.38350        0.74060       -0.64310
Cl        -8.72600       -0.32180       -0.76220
C         -6.04270        0.27100       -0.62380
Cl        -5.64670       -1.39060       -0.79250
C         -2.88140        1.89860       -1.40000
C         -1.47280        1.76670       -1.45920
C         -0.81430        0.85010       -0.62020
C          0.61540        0.62540       -0.73840
S          1.66560        0.66780        0.64670
C          3.06910        0.33890       -0.30860
C          4.42750        0.28800        0.29860
C          5.09220        1.66640        0.26780
C          2.72880        0.20970       -1.62230
C          1.33920        0.36260       -1.87040
Cl         0.65750        0.14100       -3.43110
Cl         3.85710       -0.11330       -2.87390
C         -1.59820        0.17270        0.30250
S         -1.02060       -0.96540        1.47920
C         -0.90060        2.63720       -2.41580
C         -1.82020        3.37350       -3.10160
S         -3.45980        3.04480       -2.57820
C         -1.56080        4.30110       -4.15040
C         -2.44940        5.08660       -4.82190
C         -1.85310        5.86980       -5.84050
C         -2.46750        6.80550       -6.69290
C         -3.89770        7.05440       -6.62560
S         -5.03970        5.74620       -6.72710
C         -6.39600        6.81180       -6.58140
C         -7.78460        6.27740       -6.53430
C         -8.06730        5.61230       -5.18520
C         -5.97190        8.10060       -6.45900
Cl        -7.02440        9.44440       -6.28100
C         -4.55780        8.24390       -6.49120
Cl        -3.78520        9.75910       -6.28490
C         -1.65010        7.45830       -7.60580
C         -0.25480        7.22530       -7.69860
C          0.36590        6.32380       -6.81690
C          1.80170        6.10590       -6.83100
S          2.47000        4.50140       -6.87200
C          4.09630        5.09120       -6.81200
C          5.24630        4.14730       -6.76050
C          5.30380        3.42850       -5.41090
C          4.10430        6.45320       -6.76220
C          2.80660        7.03190       -6.77690
Cl         2.55340        8.72450       -6.63830
Cl         5.53070        7.40610       -6.68660
C         -0.45630        5.65420       -5.92050
S          0.07830        4.49660       -4.73730
C          0.33580        7.94250       -8.76630
C         -0.54580        8.72480       -9.45570
S         -2.17750        8.58210       -8.82260
C         -0.29650        9.57870      -10.56990
S         -1.57150        9.93310      -11.68740
C         -0.56130       10.88510      -12.66950
C          0.71920       10.95880      -12.16650
C          0.88690       10.21730      -10.94740
C          2.13200       10.26140      -10.28030
C          3.16600       10.96500      -10.82290
C          3.03010       11.66230      -12.04390
C          1.83270       11.66110      -12.68670
F          1.67450       12.34340      -13.84100
H          7.89730      -11.47670        8.04910
H          7.48220       -8.91110        7.89460
H          7.74200       -3.05320        8.59000
H          7.62420       -4.12170       10.00170
H          9.60270       -4.45340        7.69350
H          9.48350       -5.51760        9.09910
H          9.99220       -3.83780        9.30260
H         -0.48050      -14.00600        4.69140
H         -0.33770      -15.24030        5.95870
H          1.67160      -14.77910        3.69710
H          1.81420      -16.00980        4.95630
H          0.49970      -16.09940        3.77970
H          0.54630       -9.74630        6.38470
H         -1.32090       -9.28650        7.29290
H         -3.71320       -9.82680        7.18760
H         -5.28720       -8.33360        5.99480
H         -4.11640       -4.46870        6.80630
H         -6.00800       -2.96800        7.29550
H         -6.45760       -1.01730        5.83970
H         -4.61830       -0.46780        1.63350
H         -8.64630        3.72420        0.15140
H         -9.57950        2.31010       -0.37340
H         -9.78330        4.19260       -2.00120
H         -8.98230        2.80470       -2.74480
H         -8.02940        4.19590       -2.22050
H          4.34900       -0.05740        1.33030
H          5.03760       -0.42190       -0.26370
H          5.18510        2.01660       -0.75710
H          4.49840        2.38420        0.82860
H          6.08350        1.61210        0.70920
H          0.15630        2.73300       -2.58540
H         -3.49760        5.10060       -4.58510
H         -7.92020        5.54490       -7.33260
H         -8.48090        7.10180       -6.69490
H         -7.95510        6.33290       -4.37900
H         -7.37400        4.79120       -5.01790
H         -9.08100        5.22230       -5.16490
H          5.14580        3.40740       -7.55750
H          6.16720        4.70980       -6.92210
H          4.38800        2.86630       -5.24390
H          6.14450        2.74030       -5.38950
H          5.42140        4.14770       -4.60400
H          1.36500        7.82680       -9.04720
H         -0.94080       11.34300      -13.56080
H          2.24990        9.76280       -9.33320
H          4.11640       11.00380      -10.31360
H          3.86380       12.20660      -12.45750
