
  xtb     03012205473D
 energy: -334.412880546321 gnorm: 0.000406690160 xtb: 6.4.1 (unknown)
167187  0     0  0            999 V2000
    7.1240  -12.0658    8.8564 C   0  0  0  0  0  0  0  0  0  0  0  0
    7.2040  -10.7244    8.7426 C   0  0  0  0  0  0  0  0  0  0  0  0
    6.4216  -10.2143    7.6661 C   0  0  0  0  0  0  0  0  0  0  0  0
    6.2944   -8.8851    7.2344 C   0  0  0  0  0  0  0  0  0  0  0  0
    7.0577   -7.8123    7.8525 C   0  0  0  0  0  0  0  0  0  0  0  0
    6.2870   -6.3852    8.4757 S   0  0  0  0  0  0  0  0  0  0  0  0
    7.7948   -5.6946    8.9729 C   0  0  0  0  0  0  0  0  0  0  0  0
    7.8520   -4.3432    9.5945 C   0  0  0  0  0  0  0  0  0  0  0  0
    7.6749   -3.2499    8.5387 C   0  0  0  0  0  0  0  0  0  0  0  0
    8.8255   -6.5272    8.6548 C   0  0  0  0  0  0  0  0  0  0  0  0
   10.4752   -6.1819    8.9791 Cl  0  0  0  0  0  0  0  0  0  0  0  0
    8.4112   -7.7314    8.0240 C   0  0  0  0  0  0  0  0  0  0  0  0
    9.5243   -8.9142    7.4680 Cl  0  0  0  0  0  0  0  0  0  0  0  0
    5.4332   -8.6458    6.1722 C   0  0  0  0  0  0  0  0  0  0  0  0
    4.7292   -9.6764    5.5037 C   0  0  0  0  0  0  0  0  0  0  0  0
    4.8616  -11.0081    5.9298 C   0  0  0  0  0  0  0  0  0  0  0  0
    4.1403  -12.0876    5.2745 C   0  0  0  0  0  0  0  0  0  0  0  0
    4.2701  -12.3580    3.5610 S   0  0  0  0  0  0  0  0  0  0  0  0
    3.2029  -13.7186    3.6139 C   0  0  0  0  0  0  0  0  0  0  0  0
    2.8939  -14.5097    2.3911 C   0  0  0  0  0  0  0  0  0  0  0  0
    3.9165  -15.6309    2.1916 C   0  0  0  0  0  0  0  0  0  0  0  0
    2.7844  -13.9416    4.8915 C   0  0  0  0  0  0  0  0  0  0  0  0
    3.3095  -13.0178    5.8347 C   0  0  0  0  0  0  0  0  0  0  0  0
    2.8562  -13.0368    7.4870 Cl  0  0  0  0  0  0  0  0  0  0  0  0
    1.7135  -15.2051    5.3392 Cl  0  0  0  0  0  0  0  0  0  0  0  0
    5.7115  -11.2450    7.0040 C   0  0  0  0  0  0  0  0  0  0  0  0
    6.0858  -12.8012    7.6865 S   0  0  0  0  0  0  0  0  0  0  0  0
    3.9361   -9.1705    4.4437 C   0  0  0  0  0  0  0  0  0  0  0  0
    4.0272   -7.8197    4.2926 C   0  0  0  0  0  0  0  0  0  0  0  0
    5.1063   -7.0888    5.4645 S   0  0  0  0  0  0  0  0  0  0  0  0
    3.3660   -7.0095    3.3235 C   0  0  0  0  0  0  0  0  0  0  0  0
    3.3139   -5.6487    3.2656 C   0  0  0  0  0  0  0  0  0  0  0  0
    2.5728   -5.1570    2.1635 C   0  0  0  0  0  0  0  0  0  0  0  0
    2.3443   -3.8176    1.7993 C   0  0  0  0  0  0  0  0  0  0  0  0
    2.8913   -2.7204    2.5803 C   0  0  0  0  0  0  0  0  0  0  0  0
    4.5866   -2.6473    2.9634 S   0  0  0  0  0  0  0  0  0  0  0  0
    4.4106   -1.1556    3.8234 C   0  0  0  0  0  0  0  0  0  0  0  0
    5.5737   -0.5268    4.5072 C   0  0  0  0  0  0  0  0  0  0  0  0
    5.9554   -1.3118    5.7642 C   0  0  0  0  0  0  0  0  0  0  0  0
    3.1089   -0.7536    3.8093 C   0  0  0  0  0  0  0  0  0  0  0  0
    2.5370    0.6759    4.5672 Cl  0  0  0  0  0  0  0  0  0  0  0  0
    2.2459   -1.6329    3.1000 C   0  0  0  0  0  0  0  0  0  0  0  0
    0.5547   -1.3749    3.0047 Cl  0  0  0  0  0  0  0  0  0  0  0  0
    1.6002   -3.5958    0.6481 C   0  0  0  0  0  0  0  0  0  0  0  0
    1.0748   -4.6482   -0.1416 C   0  0  0  0  0  0  0  0  0  0  0  0
    1.2852   -5.9872    0.2321 C   0  0  0  0  0  0  0  0  0  0  0  0
    0.7901   -7.0797   -0.5880 C   0  0  0  0  0  0  0  0  0  0  0  0
    1.1377   -7.1360   -2.2934 S   0  0  0  0  0  0  0  0  0  0  0  0
    0.2979   -8.6353   -2.5005 C   0  0  0  0  0  0  0  0  0  0  0  0
    0.1606   -9.2550   -3.8468 C   0  0  0  0  0  0  0  0  0  0  0  0
   -0.8654   -8.4988   -4.6940 C   0  0  0  0  0  0  0  0  0  0  0  0
   -0.2197   -9.0514   -1.3114 C   0  0  0  0  0  0  0  0  0  0  0  0
    0.0606   -8.1771   -0.2251 C   0  0  0  0  0  0  0  0  0  0  0  0
   -0.5545   -8.4541    1.3498 Cl  0  0  0  0  0  0  0  0  0  0  0  0
   -1.1269  -10.4943   -1.1127 Cl  0  0  0  0  0  0  0  0  0  0  0  0
    2.0321   -6.2089    1.3819 C   0  0  0  0  0  0  0  0  0  0  0  0
    2.4850   -7.7647    2.0131 S   0  0  0  0  0  0  0  0  0  0  0  0
    0.3693   -4.1659   -1.2687 C   0  0  0  0  0  0  0  0  0  0  0  0
    0.3860   -2.8052   -1.3854 C   0  0  0  0  0  0  0  0  0  0  0  0
    1.2457   -2.0458   -0.0570 S   0  0  0  0  0  0  0  0  0  0  0  0
   -0.2052   -2.0099   -2.4083 C   0  0  0  0  0  0  0  0  0  0  0  0
   -0.7727   -0.4147   -2.0628 S   0  0  0  0  0  0  0  0  0  0  0  0
   -1.3522   -0.1708   -3.6770 C   0  0  0  0  0  0  0  0  0  0  0  0
   -1.1293   -1.3112   -4.4538 C   0  0  0  0  0  0  0  0  0  0  0  0
   -0.4445   -2.3514   -3.7428 C   0  0  0  0  0  0  0  0  0  0  0  0
   -0.0682   -3.5337   -4.4187 C   0  0  0  0  0  0  0  0  0  0  0  0
   -0.4477   -3.7202   -5.7151 C   0  0  0  0  0  0  0  0  0  0  0  0
   -1.2346   -2.7651   -6.3882 C   0  0  0  0  0  0  0  0  0  0  0  0
   -1.5613   -1.5956   -5.7696 C   0  0  0  0  0  0  0  0  0  0  0  0
   -2.3447   -0.7096   -6.4197 F   0  0  0  0  0  0  0  0  0  0  0  0
   -1.9496    1.0683   -4.0437 C   0  0  0  0  0  0  0  0  0  0  0  0
   -3.0886    1.8351   -2.9920 S   0  0  0  0  0  0  0  0  0  0  0  0
   -3.3569    3.1624   -4.0810 C   0  0  0  0  0  0  0  0  0  0  0  0
   -2.5578    3.0128   -5.2236 C   0  0  0  0  0  0  0  0  0  0  0  0
   -1.7393    1.8367   -5.1906 C   0  0  0  0  0  0  0  0  0  0  0  0
   -0.7987    1.5876   -6.2125 C   0  0  0  0  0  0  0  0  0  0  0  0
   -0.7317    2.4250   -7.2857 C   0  0  0  0  0  0  0  0  0  0  0  0
   -1.6062    3.5214   -7.3964 C   0  0  0  0  0  0  0  0  0  0  0  0
   -2.4894    3.7995   -6.3950 C   0  0  0  0  0  0  0  0  0  0  0  0
   -3.3312    4.8423   -6.5563 F   0  0  0  0  0  0  0  0  0  0  0  0
   -4.2079    4.2297   -3.6871 C   0  0  0  0  0  0  0  0  0  0  0  0
   -3.8358    5.8719   -4.0730 S   0  0  0  0  0  0  0  0  0  0  0  0
   -5.1745    6.5045   -3.1770 C   0  0  0  0  0  0  0  0  0  0  0  0
   -5.8903    5.4629   -2.5719 C   0  0  0  0  0  0  0  0  0  0  0  0
   -5.3459    4.1681   -2.8673 C   0  0  0  0  0  0  0  0  0  0  0  0
   -5.9831    3.0020   -2.3973 C   0  0  0  0  0  0  0  0  0  0  0  0
   -7.0892    3.1011   -1.6049 C   0  0  0  0  0  0  0  0  0  0  0  0
   -7.5915    4.3592   -1.2340 C   0  0  0  0  0  0  0  0  0  0  0  0
   -7.0068    5.4979   -1.7065 C   0  0  0  0  0  0  0  0  0  0  0  0
   -7.5126    6.6789   -1.2980 F   0  0  0  0  0  0  0  0  0  0  0  0
   -5.3638    7.9170   -3.2332 C   0  0  0  0  0  0  0  0  0  0  0  0
   -4.4018    8.8111   -3.6268 C   0  0  0  0  0  0  0  0  0  0  0  0
   -4.8509   10.1486   -3.6874 C   0  0  0  0  0  0  0  0  0  0  0  0
   -4.1218   11.2994   -4.0359 C   0  0  0  0  0  0  0  0  0  0  0  0
   -2.7080   11.2277   -4.3669 C   0  0  0  0  0  0  0  0  0  0  0  0
   -1.5589   10.5275   -3.2642 S   0  0  0  0  0  0  0  0  0  0  0  0
   -0.2273   10.8501   -4.3213 C   0  0  0  0  0  0  0  0  0  0  0  0
    1.1708   10.5262   -3.9251 C   0  0  0  0  0  0  0  0  0  0  0  0
    1.7858   11.6701   -3.1150 C   0  0  0  0  0  0  0  0  0  0  0  0
   -0.6635   11.4668   -5.4552 C   0  0  0  0  0  0  0  0  0  0  0  0
    0.3678   11.9406   -6.7421 Cl  0  0  0  0  0  0  0  0  0  0  0  0
   -2.0681   11.6791   -5.4872 C   0  0  0  0  0  0  0  0  0  0  0  0
   -2.8634   12.3574   -6.8446 Cl  0  0  0  0  0  0  0  0  0  0  0  0
   -4.8107   12.5057   -4.0365 C   0  0  0  0  0  0  0  0  0  0  0  0
   -6.1837   12.6097   -3.7048 C   0  0  0  0  0  0  0  0  0  0  0  0
   -6.9039   11.4643   -3.3341 C   0  0  0  0  0  0  0  0  0  0  0  0
   -8.2955   11.5444   -2.9193 C   0  0  0  0  0  0  0  0  0  0  0  0
   -9.5244   10.5616   -3.6555 S   0  0  0  0  0  0  0  0  0  0  0  0
  -10.7643   11.2168   -2.6423 C   0  0  0  0  0  0  0  0  0  0  0  0
  -12.1872   10.8081   -2.7997 C   0  0  0  0  0  0  0  0  0  0  0  0
  -12.8796   11.6399   -3.8821 C   0  0  0  0  0  0  0  0  0  0  0  0
  -10.2411   12.1441   -1.7914 C   0  0  0  0  0  0  0  0  0  0  0  0
   -8.8410   12.3291   -1.9417 C   0  0  0  0  0  0  0  0  0  0  0  0
   -7.9332   13.3784   -0.9308 Cl  0  0  0  0  0  0  0  0  0  0  0  0
  -11.1655   13.0095   -0.6329 Cl  0  0  0  0  0  0  0  0  0  0  0  0
   -6.2230   10.2541   -3.3549 C   0  0  0  0  0  0  0  0  0  0  0  0
   -6.8968    8.7108   -2.9337 S   0  0  0  0  0  0  0  0  0  0  0  0
   -6.6481   13.9534   -3.8075 C   0  0  0  0  0  0  0  0  0  0  0  0
   -5.6729   14.8190   -4.1507 C   0  0  0  0  0  0  0  0  0  0  0  0
   -4.1332   14.0697   -4.3913 S   0  0  0  0  0  0  0  0  0  0  0  0
    7.6129  -12.6958    9.5735 H   0  0  0  0  0  0  0  0  0  0  0  0
    7.7868  -10.1042    9.3979 H   0  0  0  0  0  0  0  0  0  0  0  0
    7.0625   -4.2531   10.3430 H   0  0  0  0  0  0  0  0  0  0  0  0
    8.8176   -4.2275   10.0891 H   0  0  0  0  0  0  0  0  0  0  0  0
    6.7141   -3.3598    8.0423 H   0  0  0  0  0  0  0  0  0  0  0  0
    8.4618   -3.3161    7.7917 H   0  0  0  0  0  0  0  0  0  0  0  0
    7.7180   -2.2697    9.0052 H   0  0  0  0  0  0  0  0  0  0  0  0
    2.9010  -13.8501    1.5218 H   0  0  0  0  0  0  0  0  0  0  0  0
    1.8965  -14.9412    2.4964 H   0  0  0  0  0  0  0  0  0  0  0  0
    3.9111  -16.3016    3.0470 H   0  0  0  0  0  0  0  0  0  0  0  0
    4.9156  -15.2158    2.0813 H   0  0  0  0  0  0  0  0  0  0  0  0
    3.6746  -16.2018    1.2993 H   0  0  0  0  0  0  0  0  0  0  0  0
    3.3122   -9.7812    3.8165 H   0  0  0  0  0  0  0  0  0  0  0  0
    3.7899   -5.0238    3.9990 H   0  0  0  0  0  0  0  0  0  0  0  0
    5.3084    0.4970    4.7750 H   0  0  0  0  0  0  0  0  0  0  0  0
    6.4268   -0.5000    3.8262 H   0  0  0  0  0  0  0  0  0  0  0  0
    6.2234   -2.3327    5.5021 H   0  0  0  0  0  0  0  0  0  0  0  0
    5.1204   -1.3379    6.4599 H   0  0  0  0  0  0  0  0  0  0  0  0
    6.8036   -0.8434    6.2555 H   0  0  0  0  0  0  0  0  0  0  0  0
    1.1274   -9.2425   -4.3542 H   0  0  0  0  0  0  0  0  0  0  0  0
   -0.1552  -10.2918   -3.7220 H   0  0  0  0  0  0  0  0  0  0  0  0
   -0.9564   -8.9623   -5.6725 H   0  0  0  0  0  0  0  0  0  0  0  0
   -1.8387   -8.5134   -4.2100 H   0  0  0  0  0  0  0  0  0  0  0  0
   -0.5579   -7.4635   -4.8234 H   0  0  0  0  0  0  0  0  0  0  0  0
   -0.1784   -4.8023   -1.9368 H   0  0  0  0  0  0  0  0  0  0  0  0
    0.5302   -4.2708   -3.9090 H   0  0  0  0  0  0  0  0  0  0  0  0
   -0.1626   -4.6183   -6.2405 H   0  0  0  0  0  0  0  0  0  0  0  0
   -1.5830   -2.9492   -7.3916 H   0  0  0  0  0  0  0  0  0  0  0  0
   -0.1415    0.7365   -6.1286 H   0  0  0  0  0  0  0  0  0  0  0  0
   -0.0175    2.2465   -8.0740 H   0  0  0  0  0  0  0  0  0  0  0  0
   -1.5892    4.1511   -8.2714 H   0  0  0  0  0  0  0  0  0  0  0  0
   -5.5993    2.0345   -2.6765 H   0  0  0  0  0  0  0  0  0  0  0  0
   -7.5839    2.2126   -1.2455 H   0  0  0  0  0  0  0  0  0  0  0  0
   -8.4418    4.4412   -0.5762 H   0  0  0  0  0  0  0  0  0  0  0  0
   -3.3961    8.5121   -3.8618 H   0  0  0  0  0  0  0  0  0  0  0  0
    1.7613   10.3595   -4.8281 H   0  0  0  0  0  0  0  0  0  0  0  0
    1.1766    9.6129   -3.3278 H   0  0  0  0  0  0  0  0  0  0  0  0
    1.7959   12.5843   -3.7032 H   0  0  0  0  0  0  0  0  0  0  0  0
    2.8067   11.4237   -2.8356 H   0  0  0  0  0  0  0  0  0  0  0  0
    1.2079   11.8450   -2.2107 H   0  0  0  0  0  0  0  0  0  0  0  0
  -12.6999   10.9498   -1.8464 H   0  0  0  0  0  0  0  0  0  0  0  0
  -12.2317    9.7515   -3.0686 H   0  0  0  0  0  0  0  0  0  0  0  0
  -13.9161   11.3305   -3.9852 H   0  0  0  0  0  0  0  0  0  0  0  0
  -12.3778   11.5073   -4.8376 H   0  0  0  0  0  0  0  0  0  0  0  0
  -12.8553   12.6946   -3.6195 H   0  0  0  0  0  0  0  0  0  0  0  0
   -7.6690   14.2417   -3.6386 H   0  0  0  0  0  0  0  0  0  0  0  0
   -5.7527   15.8793   -4.2909 H   0  0  0  0  0  0  0  0  0  0  0  0
  1  2  2  0  0  0  0
  2  3  1  0  0  0  0
  3  4  2  0  0  0  0
  4  5  1  0  0  0  0
  5  6  1  0  0  0  0
  6  7  1  0  0  0  0
  7  8  1  0  0  0  0
  8  9  1  0  0  0  0
  7 10  2  0  0  0  0
 10 11  1  0  0  0  0
 10 12  1  0  0  0  0
 12 13  1  0  0  0  0
  4 14  1  0  0  0  0
 14 15  2  0  0  0  0
 15 16  1  0  0  0  0
 16 17  1  0  0  0  0
 17 18  1  0  0  0  0
 18 19  1  0  0  0  0
 19 20  1  0  0  0  0
 20 21  1  0  0  0  0
 19 22  2  0  0  0  0
 22 23  1  0  0  0  0
 23 24  1  0  0  0  0
 22 25  1  0  0  0  0
 16 26  2  0  0  0  0
 26 27  1  0  0  0  0
 15 28  1  0  0  0  0
 28 29  2  0  0  0  0
 29 30  1  0  0  0  0
 29 31  1  0  0  0  0
 31 32  2  0  0  0  0
 32 33  1  0  0  0  0
 33 34  2  0  0  0  0
 34 35  1  0  0  0  0
 35 36  1  0  0  0  0
 36 37  1  0  0  0  0
 37 38  1  0  0  0  0
 38 39  1  0  0  0  0
 37 40  2  0  0  0  0
 40 41  1  0  0  0  0
 40 42  1  0  0  0  0
 42 43  1  0  0  0  0
 34 44  1  0  0  0  0
 44 45  2  0  0  0  0
 45 46  1  0  0  0  0
 46 47  1  0  0  0  0
 47 48  1  0  0  0  0
 48 49  1  0  0  0  0
 49 50  1  0  0  0  0
 50 51  1  0  0  0  0
 49 52  2  0  0  0  0
 52 53  1  0  0  0  0
 53 54  1  0  0  0  0
 52 55  1  0  0  0  0
 46 56  2  0  0  0  0
 56 57  1  0  0  0  0
 45 58  1  0  0  0  0
 58 59  2  0  0  0  0
 59 60  1  0  0  0  0
 59 61  1  0  0  0  0
 61 62  1  0  0  0  0
 62 63  1  0  0  0  0
 63 64  2  0  0  0  0
 64 65  1  0  0  0  0
 65 66  1  0  0  0  0
 66 67  2  0  0  0  0
 67 68  1  0  0  0  0
 68 69  2  0  0  0  0
 69 70  1  0  0  0  0
 63 71  1  0  0  0  0
 71 72  1  0  0  0  0
 72 73  1  0  0  0  0
 73 74  2  0  0  0  0
 74 75  1  0  0  0  0
 75 76  1  0  0  0  0
 76 77  2  0  0  0  0
 77 78  1  0  0  0  0
 78 79  2  0  0  0  0
 79 80  1  0  0  0  0
 73 81  1  0  0  0  0
 81 82  1  0  0  0  0
 82 83  1  0  0  0  0
 83 84  2  0  0  0  0
 84 85  1  0  0  0  0
 85 86  1  0  0  0  0
 86 87  2  0  0  0  0
 87 88  1  0  0  0  0
 88 89  2  0  0  0  0
 89 90  1  0  0  0  0
 83 91  1  0  0  0  0
 91 92  2  0  0  0  0
 92 93  1  0  0  0  0
 93 94  2  0  0  0  0
 94 95  1  0  0  0  0
 95 96  1  0  0  0  0
 96 97  1  0  0  0  0
 97 98  1  0  0  0  0
 98 99  1  0  0  0  0
 97100  2  0  0  0  0
100101  1  0  0  0  0
100102  1  0  0  0  0
102103  1  0  0  0  0
 94104  1  0  0  0  0
104105  2  0  0  0  0
105106  1  0  0  0  0
106107  1  0  0  0  0
107108  1  0  0  0  0
108109  1  0  0  0  0
109110  1  0  0  0  0
110111  1  0  0  0  0
109112  2  0  0  0  0
112113  1  0  0  0  0
113114  1  0  0  0  0
112115  1  0  0  0  0
106116  2  0  0  0  0
116117  1  0  0  0  0
105118  1  0  0  0  0
118119  2  0  0  0  0
119120  1  0  0  0  0
 27  1  1  0  0  0  0
 57 31  1  0  0  0  0
 65 61  2  0  0  0  0
 75 71  2  0  0  0  0
 85 81  2  0  0  0  0
117 91  1  0  0  0  0
 26  3  1  0  0  0  0
 56 33  1  0  0  0  0
 69 64  1  0  0  0  0
 79 74  1  0  0  0  0
 89 84  1  0  0  0  0
116 93  1  0  0  0  0
 12  5  2  0  0  0  0
 30 14  1  0  0  0  0
 42 35  2  0  0  0  0
 60 44  1  0  0  0  0
102 95  2  0  0  0  0
120104  1  0  0  0  0
 23 17  2  0  0  0  0
 53 47  2  0  0  0  0
113107  2  0  0  0  0
  1121  1  0  0  0  0
  2122  1  0  0  0  0
  8123  1  0  0  0  0
  8124  1  0  0  0  0
  9125  1  0  0  0  0
  9126  1  0  0  0  0
  9127  1  0  0  0  0
 20128  1  0  0  0  0
 20129  1  0  0  0  0
 21130  1  0  0  0  0
 21131  1  0  0  0  0
 21132  1  0  0  0  0
 28133  1  0  0  0  0
 32134  1  0  0  0  0
 38135  1  0  0  0  0
 38136  1  0  0  0  0
 39137  1  0  0  0  0
 39138  1  0  0  0  0
 39139  1  0  0  0  0
 50140  1  0  0  0  0
 50141  1  0  0  0  0
 51142  1  0  0  0  0
 51143  1  0  0  0  0
 51144  1  0  0  0  0
 58145  1  0  0  0  0
 66146  1  0  0  0  0
 67147  1  0  0  0  0
 68148  1  0  0  0  0
 76149  1  0  0  0  0
 77150  1  0  0  0  0
 78151  1  0  0  0  0
 86152  1  0  0  0  0
 87153  1  0  0  0  0
 88154  1  0  0  0  0
 92155  1  0  0  0  0
 98156  1  0  0  0  0
 98157  1  0  0  0  0
 99158  1  0  0  0  0
 99159  1  0  0  0  0
 99160  1  0  0  0  0
110161  1  0  0  0  0
110162  1  0  0  0  0
111163  1  0  0  0  0
111164  1  0  0  0  0
111165  1  0  0  0  0
118166  1  0  0  0  0
119167  1  0  0  0  0
M  END
