
  xtb     03012204463D
 energy: -166.546329190679 gnorm: 0.000360319087 xtb: 6.4.1 (unknown)
108115  0     0  0            999 V2000
    6.2053    3.9532    3.1399 C   0  0  0  0  0  0  0  0  0  0  0  0
    7.4151    3.5386    3.6666 C   0  0  0  0  0  0  0  0  0  0  0  0
    7.8615    4.0348    4.8838 C   0  0  0  0  0  0  0  0  0  0  0  0
    9.1859    3.6043    5.4573 C   0  0  0  0  0  0  0  0  0  0  0  0
    9.1305    3.5592    6.9113 N   0  0  0  0  0  0  0  0  0  0  0  0
    7.0699    4.9504    5.5651 C   0  0  0  0  0  0  0  0  0  0  0  0
    5.8579    5.3588    5.0412 C   0  0  0  0  0  0  0  0  0  0  0  0
    5.4138    4.8701    3.8197 C   0  0  0  0  0  0  0  0  0  0  0  0
    4.0758    5.2770    3.2653 C   0  0  0  0  0  0  0  0  0  0  0  0
    3.0908    4.2902    3.6678 N   0  0  0  0  0  0  0  0  0  0  0  0
    1.7545    4.4073    3.3516 C   0  0  0  0  0  0  0  0  0  0  0  0
    1.2333    5.5686    2.7844 C   0  0  0  0  0  0  0  0  0  0  0  0
   -0.1209    5.7010    2.5233 C   0  0  0  0  0  0  0  0  0  0  0  0
   -0.6337    6.9773    1.9095 C   0  0  0  0  0  0  0  0  0  0  0  0
    0.2889    7.4636    0.8917 N   0  0  0  0  0  0  0  0  0  0  0  0
   -0.9785    4.6569    2.8289 C   0  0  0  0  0  0  0  0  0  0  0  0
   -0.4761    3.5009    3.4026 C   0  0  0  0  0  0  0  0  0  0  0  0
    0.8718    3.3576    3.6723 C   0  0  0  0  0  0  0  0  0  0  0  0
    1.4283    2.1025    4.3168 C   0  0  0  0  0  0  0  0  0  0  0  0
    0.4447    1.1600    4.7833 N   0  0  0  0  0  0  0  0  0  0  0  0
   -0.2105    0.3265    3.9275 C   0  0  0  0  0  0  0  0  0  0  0  0
    0.3149    0.0938    2.3015 S   0  0  0  0  0  0  0  0  0  0  0  0
   -0.8976   -1.1317    1.9962 C   0  0  0  0  0  0  0  0  0  0  0  0
   -1.6994   -1.2961    3.1156 C   0  0  0  0  0  0  0  0  0  0  0  0
   -1.3053   -0.4795    4.2312 C   0  0  0  0  0  0  0  0  0  0  0  0
   -2.0192   -0.5408    5.4497 C   0  0  0  0  0  0  0  0  0  0  0  0
   -3.1073   -1.3522    5.5560 C   0  0  0  0  0  0  0  0  0  0  0  0
   -3.5511   -2.1137    4.4523 C   0  0  0  0  0  0  0  0  0  0  0  0
   -2.8718   -2.0760    3.2747 C   0  0  0  0  0  0  0  0  0  0  0  0
   -3.3527   -2.7702    2.2187 F   0  0  0  0  0  0  0  0  0  0  0  0
   -0.9223   -1.8274    0.7512 C   0  0  0  0  0  0  0  0  0  0  0  0
   -0.8232   -0.9774   -0.7567 S   0  0  0  0  0  0  0  0  0  0  0  0
   -0.9581   -2.4239   -1.6901 C   0  0  0  0  0  0  0  0  0  0  0  0
   -1.0301   -3.5311   -0.8624 C   0  0  0  0  0  0  0  0  0  0  0  0
   -1.0059   -3.1999    0.5352 C   0  0  0  0  0  0  0  0  0  0  0  0
   -0.9903   -4.2256    1.5070 C   0  0  0  0  0  0  0  0  0  0  0  0
   -1.0184   -5.5282    1.1135 C   0  0  0  0  0  0  0  0  0  0  0  0
   -1.0427   -5.8770   -0.2550 C   0  0  0  0  0  0  0  0  0  0  0  0
   -1.0368   -4.9054   -1.2052 C   0  0  0  0  0  0  0  0  0  0  0  0
   -1.0047   -5.2590   -2.5120 F   0  0  0  0  0  0  0  0  0  0  0  0
   -0.9636   -2.3434   -3.1487 C   0  0  0  0  0  0  0  0  0  0  0  0
    0.1485   -1.8119   -3.7931 C   0  0  0  0  0  0  0  0  0  0  0  0
    0.2052   -1.7188   -5.1749 C   0  0  0  0  0  0  0  0  0  0  0  0
    1.3918   -1.0776   -5.8516 C   0  0  0  0  0  0  0  0  0  0  0  0
    1.2486    0.3677   -6.0048 N   0  0  0  0  0  0  0  0  0  0  0  0
   -0.8898   -2.1489   -5.9117 C   0  0  0  0  0  0  0  0  0  0  0  0
   -2.0128   -2.6509   -5.2795 C   0  0  0  0  0  0  0  0  0  0  0  0
   -2.0735   -2.7539   -3.8983 C   0  0  0  0  0  0  0  0  0  0  0  0
   -3.3196   -3.2524   -3.1951 C   0  0  0  0  0  0  0  0  0  0  0  0
   -4.5151   -3.3129   -3.9934 N   0  0  0  0  0  0  0  0  0  0  0  0
   -4.7619   -4.3177   -4.9156 C   0  0  0  0  0  0  0  0  0  0  0  0
   -3.8883   -5.3901   -5.0940 C   0  0  0  0  0  0  0  0  0  0  0  0
   -4.1678   -6.4047   -5.9939 C   0  0  0  0  0  0  0  0  0  0  0  0
   -3.1807   -7.5200   -6.2110 C   0  0  0  0  0  0  0  0  0  0  0  0
   -2.3265   -7.1905   -7.3492 N   0  0  0  0  0  0  0  0  0  0  0  0
   -5.3337   -6.3466   -6.7431 C   0  0  0  0  0  0  0  0  0  0  0  0
   -6.2106   -5.2898   -6.5742 C   0  0  0  0  0  0  0  0  0  0  0  0
   -5.9536   -4.2821   -5.6625 C   0  0  0  0  0  0  0  0  0  0  0  0
   -6.9391   -3.1549   -5.4622 C   0  0  0  0  0  0  0  0  0  0  0  0
   -8.2220   -3.4383   -6.0874 N   0  0  0  0  0  0  0  0  0  0  0  0
    5.8736    3.5622    2.1879 H   0  0  0  0  0  0  0  0  0  0  0  0
    8.0189    2.8248    3.1239 H   0  0  0  0  0  0  0  0  0  0  0  0
    9.9452    4.3476    5.1851 H   0  0  0  0  0  0  0  0  0  0  0  0
    9.4839    2.6455    4.9985 H   0  0  0  0  0  0  0  0  0  0  0  0
   10.0336    3.2984    7.2910 H   0  0  0  0  0  0  0  0  0  0  0  0
    8.4520    2.8674    7.2131 H   0  0  0  0  0  0  0  0  0  0  0  0
    7.4180    5.3315    6.5123 H   0  0  0  0  0  0  0  0  0  0  0  0
    5.2495    6.0683    5.5827 H   0  0  0  0  0  0  0  0  0  0  0  0
    4.1333    5.3673    2.1690 H   0  0  0  0  0  0  0  0  0  0  0  0
    3.7811    6.2458    3.6778 H   0  0  0  0  0  0  0  0  0  0  0  0
    3.4569    3.3507    3.6802 H   0  0  0  0  0  0  0  0  0  0  0  0
    1.8776    6.3897    2.5197 H   0  0  0  0  0  0  0  0  0  0  0  0
   -1.6563    6.8100    1.5304 H   0  0  0  0  0  0  0  0  0  0  0  0
   -0.6923    7.7484    2.6873 H   0  0  0  0  0  0  0  0  0  0  0  0
    0.3713    6.7796    0.1463 H   0  0  0  0  0  0  0  0  0  0  0  0
   -0.0579    8.3262    0.4865 H   0  0  0  0  0  0  0  0  0  0  0  0
   -2.0357    4.7391    2.6254 H   0  0  0  0  0  0  0  0  0  0  0  0
   -1.1622    2.6992    3.6358 H   0  0  0  0  0  0  0  0  0  0  0  0
    2.0417    2.3849    5.1801 H   0  0  0  0  0  0  0  0  0  0  0  0
    2.0691    1.5699    3.6014 H   0  0  0  0  0  0  0  0  0  0  0  0
   -0.0963    1.4627    5.5807 H   0  0  0  0  0  0  0  0  0  0  0  0
   -1.6973    0.0602    6.2872 H   0  0  0  0  0  0  0  0  0  0  0  0
   -3.6604   -1.4087    6.4803 H   0  0  0  0  0  0  0  0  0  0  0  0
   -4.4410   -2.7175    4.5311 H   0  0  0  0  0  0  0  0  0  0  0  0
   -0.9391   -3.9609    2.5517 H   0  0  0  0  0  0  0  0  0  0  0  0
   -1.0038   -6.3196    1.8466 H   0  0  0  0  0  0  0  0  0  0  0  0
   -1.0433   -6.9135   -0.5531 H   0  0  0  0  0  0  0  0  0  0  0  0
    0.9893   -1.4828   -3.1970 H   0  0  0  0  0  0  0  0  0  0  0  0
    2.3006   -1.2557   -5.2706 H   0  0  0  0  0  0  0  0  0  0  0  0
    1.5299   -1.5006   -6.8500 H   0  0  0  0  0  0  0  0  0  0  0  0
    1.1176    0.7971   -5.0939 H   0  0  0  0  0  0  0  0  0  0  0  0
    0.4220    0.5732   -6.5576 H   0  0  0  0  0  0  0  0  0  0  0  0
   -0.8666   -2.0905   -6.9905 H   0  0  0  0  0  0  0  0  0  0  0  0
   -2.8521   -2.9705   -5.8779 H   0  0  0  0  0  0  0  0  0  0  0  0
   -3.1440   -4.2506   -2.7877 H   0  0  0  0  0  0  0  0  0  0  0  0
   -3.5276   -2.5927   -2.3433 H   0  0  0  0  0  0  0  0  0  0  0  0
   -4.8897   -2.4105   -4.2404 H   0  0  0  0  0  0  0  0  0  0  0  0
   -2.9586   -5.4301   -4.5502 H   0  0  0  0  0  0  0  0  0  0  0  0
   -2.5318   -7.6237   -5.3372 H   0  0  0  0  0  0  0  0  0  0  0  0
   -3.7295   -8.4692   -6.3487 H   0  0  0  0  0  0  0  0  0  0  0  0
   -2.8975   -7.0376   -8.1744 H   0  0  0  0  0  0  0  0  0  0  0  0
   -1.6894   -7.9554   -7.5448 H   0  0  0  0  0  0  0  0  0  0  0  0
   -5.5607   -7.1251   -7.4578 H   0  0  0  0  0  0  0  0  0  0  0  0
   -7.1143   -5.2358   -7.1607 H   0  0  0  0  0  0  0  0  0  0  0  0
   -7.0315   -2.9617   -4.3772 H   0  0  0  0  0  0  0  0  0  0  0  0
   -6.5494   -2.2401   -5.9298 H   0  0  0  0  0  0  0  0  0  0  0  0
   -8.6454   -4.2489   -5.6470 H   0  0  0  0  0  0  0  0  0  0  0  0
   -8.8504   -2.6524   -5.9601 H   0  0  0  0  0  0  0  0  0  0  0  0
  1  2  2  0  0  0  0
  2  3  1  0  0  0  0
  3  4  1  0  0  0  0
  4  5  1  0  0  0  0
  3  6  2  0  0  0  0
  6  7  1  0  0  0  0
  7  8  2  0  0  0  0
  8  9  1  0  0  0  0
  9 10  1  0  0  0  0
 10 11  1  0  0  0  0
 11 12  2  0  0  0  0
 12 13  1  0  0  0  0
 13 14  1  0  0  0  0
 14 15  1  0  0  0  0
 13 16  2  0  0  0  0
 16 17  1  0  0  0  0
 17 18  2  0  0  0  0
 18 19  1  0  0  0  0
 19 20  1  0  0  0  0
 20 21  1  0  0  0  0
 21 22  1  0  0  0  0
 22 23  1  0  0  0  0
 23 24  2  0  0  0  0
 24 25  1  0  0  0  0
 25 26  1  0  0  0  0
 26 27  2  0  0  0  0
 27 28  1  0  0  0  0
 28 29  2  0  0  0  0
 29 30  1  0  0  0  0
 23 31  1  0  0  0  0
 31 32  1  0  0  0  0
 32 33  1  0  0  0  0
 33 34  2  0  0  0  0
 34 35  1  0  0  0  0
 35 36  1  0  0  0  0
 36 37  2  0  0  0  0
 37 38  1  0  0  0  0
 38 39  2  0  0  0  0
 39 40  1  0  0  0  0
 33 41  1  0  0  0  0
 41 42  2  0  0  0  0
 42 43  1  0  0  0  0
 43 44  1  0  0  0  0
 44 45  1  0  0  0  0
 43 46  2  0  0  0  0
 46 47  1  0  0  0  0
 47 48  2  0  0  0  0
 48 49  1  0  0  0  0
 49 50  1  0  0  0  0
 50 51  1  0  0  0  0
 51 52  2  0  0  0  0
 52 53  1  0  0  0  0
 53 54  1  0  0  0  0
 54 55  1  0  0  0  0
 53 56  2  0  0  0  0
 56 57  1  0  0  0  0
 57 58  2  0  0  0  0
 58 59  1  0  0  0  0
 59 60  1  0  0  0  0
  8  1  1  0  0  0  0
 18 11  1  0  0  0  0
 25 21  2  0  0  0  0
 35 31  2  0  0  0  0
 48 41  1  0  0  0  0
 58 51  1  0  0  0  0
 29 24  1  0  0  0  0
 39 34  1  0  0  0  0
  1 61  1  0  0  0  0
  2 62  1  0  0  0  0
  4 63  1  0  0  0  0
  4 64  1  0  0  0  0
  5 65  1  0  0  0  0
  5 66  1  0  0  0  0
  6 67  1  0  0  0  0
  7 68  1  0  0  0  0
  9 69  1  0  0  0  0
  9 70  1  0  0  0  0
 10 71  1  0  0  0  0
 12 72  1  0  0  0  0
 14 73  1  0  0  0  0
 14 74  1  0  0  0  0
 15 75  1  0  0  0  0
 15 76  1  0  0  0  0
 16 77  1  0  0  0  0
 17 78  1  0  0  0  0
 19 79  1  0  0  0  0
 19 80  1  0  0  0  0
 20 81  1  0  0  0  0
 26 82  1  0  0  0  0
 27 83  1  0  0  0  0
 28 84  1  0  0  0  0
 36 85  1  0  0  0  0
 37 86  1  0  0  0  0
 38 87  1  0  0  0  0
 42 88  1  0  0  0  0
 44 89  1  0  0  0  0
 44 90  1  0  0  0  0
 45 91  1  0  0  0  0
 45 92  1  0  0  0  0
 46 93  1  0  0  0  0
 47 94  1  0  0  0  0
 49 95  1  0  0  0  0
 49 96  1  0  0  0  0
 50 97  1  0  0  0  0
 52 98  1  0  0  0  0
 54 99  1  0  0  0  0
 54100  1  0  0  0  0
 55101  1  0  0  0  0
 55102  1  0  0  0  0
 56103  1  0  0  0  0
 57104  1  0  0  0  0
 59105  1  0  0  0  0
 59106  1  0  0  0  0
 60107  1  0  0  0  0
 60108  1  0  0  0  0
M  END
