225

C         -5.71170      -17.05780        3.88960
C         -4.83700      -16.69910        2.92800
C         -5.16910      -15.45580        2.31570
C         -4.46360      -14.75930        1.32270
C         -3.17090      -15.21840        0.84000
S         -2.83760      -15.40130       -0.85550
C         -1.19880      -15.87050       -0.56230
C         -0.28690      -16.24450       -1.67830
C         -0.32990      -17.75200       -1.93990
C         -0.94220      -15.88770        0.77640
Cl         0.58030      -16.30090        1.45170
C         -2.05570      -15.51370        1.57470
Cl        -1.96110      -15.37060        3.28260
C         -5.02740      -13.57760        0.85990
C         -6.22840      -13.04160        1.38300
C         -6.91540      -13.71790        2.40480
C         -8.11810      -13.15500        2.99690
S         -8.11460      -11.54210        3.65040
C         -9.77100      -11.65070        4.14190
C        -10.43620      -10.51780        4.84250
C         -9.80890      -10.26400        6.21360
C        -10.28050      -12.87080        3.81320
C         -9.34840      -13.72570        3.16340
Cl        -9.77990      -15.27730        2.57900
Cl       -11.89570      -13.35620        4.13060
C         -6.37010      -14.91970        2.84150
S         -7.00260      -15.92950        4.10960
C         -6.56950      -11.81290        0.76520
C         -5.66620      -11.40560       -0.16990
S         -4.34160      -12.53750       -0.35600
C         -5.66650      -10.18040       -0.89780
C         -4.73900       -9.74550       -1.79700
C         -4.95480       -8.41540       -2.23050
C         -4.17510       -7.65690       -3.11970
C         -2.94380       -8.18290       -3.68550
S         -2.65110       -8.16200       -5.39830
C         -1.08800       -8.88430       -5.21830
C         -0.21390       -9.12750       -6.39860
C          0.37700       -7.81650       -6.92090
C         -0.81960       -9.11020       -3.90150
Cl         0.63860       -9.80630       -3.32330
C         -1.87020       -8.71770       -3.02880
Cl        -1.74090       -8.83480       -1.32050
C         -4.60400       -6.36490       -3.38820
C         -5.75530       -5.79310       -2.79420
C         -6.53800       -6.55180       -1.90540
C         -7.72980       -5.99350       -1.28870
S         -8.98540       -5.28600       -2.26420
C         -9.96920       -4.93280       -0.88580
C        -11.31640       -4.31730       -1.03420
C        -12.38080       -5.38690       -1.29080
C         -9.34970       -5.34900        0.25450
C         -8.07870       -5.94450        0.03290
Cl        -7.07080       -6.44870        1.32410
Cl       -10.01870       -5.17190        1.82440
C         -6.11400       -7.84820       -1.64280
S         -6.90280       -8.98110       -0.58510
C         -5.88600       -4.41950       -3.11490
C         -4.88670       -3.94960       -3.91450
S         -3.74880       -5.20590       -4.36480
C         -4.59780       -2.59420       -4.24650
C         -3.51870       -2.13400       -4.94240
C         -3.34840       -0.73160       -4.86050
C         -2.26100        0.03870       -5.31260
C         -1.19980       -0.51780       -6.13330
S         -0.37230       -1.99080       -5.71990
C          0.66380       -1.89410       -7.10180
C          1.64190       -2.97420       -7.40510
C          0.95130       -4.14150       -8.11480
C          0.37000       -0.78440       -7.83590
Cl         1.17820       -0.35480       -9.28700
C         -0.67780        0.00240       -7.28700
Cl        -1.26930        1.40780       -8.06820
C         -2.21040        1.35840       -4.88040
C         -3.23990        1.96280       -4.11730
C         -4.38790        1.22590       -3.77390
C         -5.47970        1.81800       -3.01960
S         -5.20740        2.69500       -1.54220
C         -6.89310        3.02530       -1.32930
C         -7.36710        3.85550       -0.18810
C         -6.86850        5.29680       -0.31020
C         -7.61210        2.47690       -2.34850
C         -6.81720        1.78440       -3.30230
Cl        -7.48660        1.06350       -4.70510
Cl        -9.31770        2.59600       -2.49510
C         -4.38920       -0.11960       -4.11740
S         -5.54370       -1.29390       -3.55280
C         -2.88350        3.26360       -3.69300
C         -1.61200        3.61950       -4.03640
S         -0.83080        2.41100       -5.03190
C         -0.88010        4.72370       -3.51380
C          0.45330        4.98320       -3.63360
C          0.90920        6.00250       -2.76280
C          2.23940        6.39270       -2.51600
C          3.32660        5.94880       -3.36610
S          4.81600        5.34140       -2.70480
C          5.50960        5.10700       -4.27230
C          6.90880        4.62150       -4.42130
C          7.90860        5.73900       -4.11360
C          4.62990        5.48700       -5.24180
Cl         4.96420        5.41250       -6.92340
C          3.38970        5.95880       -4.73430
Cl         2.15240        6.56440       -5.75740
C          2.45620        7.18540       -1.39680
C          1.41130        7.69060       -0.58490
C          0.07190        7.39320       -0.90080
C         -1.04040        7.86260       -0.09480
S         -1.04150        7.68540        1.63780
C         -2.64040        8.33360        1.78880
C         -3.27830        8.49390        3.12440
C         -2.47290        9.43810        4.01750
C         -3.12890        8.66640        0.56170
C         -2.22930        8.39980       -0.50670
Cl        -2.59480        8.81510       -2.12820
Cl        -4.68700        9.33490        0.29600
C         -0.13920        6.52650       -1.96730
S         -1.66360        5.79230       -2.36820
C          1.90060        8.42840        0.51820
C          3.26540        8.45360        0.60710
S          4.00930        7.64420       -0.76850
C          4.13340        8.92700        1.62990
S          5.83470        8.79200        1.35390
C          6.24420        9.31130        2.94640
C          5.08980        9.64650        3.66200
C          3.87930        9.40590        2.92410
C          2.63290        9.63960        3.54330
C          2.57820       10.13630        4.81300
C          3.75220       10.45110        5.51920
C          4.96800       10.21430        4.95030
F          6.07470       10.56850        5.63570
C          7.61310        9.23140        3.33940
C          8.15130        8.96360        4.56400
C          9.56070        8.82290        4.54410
C         10.41660        8.54930        5.62420
C          9.88080        8.24970        6.94140
S         10.39470        9.09630        8.36800
C          9.35220        8.16720        9.38880
C          9.25080        8.43560       10.84990
C          8.12320        9.42750       11.14630
C          8.65030        7.26000        8.65160
Cl         7.51970        6.15490        9.32000
C          8.94880        7.30140        7.26480
Cl         8.25850        6.20490        6.13770
C         11.78030        8.53500        5.35920
C         12.31700        8.72360        4.06280
C         11.45890        8.96170        2.97780
C         11.96050        9.14090        1.62410
S         11.36980        8.15610        0.31900
C         12.37440        8.95610       -0.84270
C         12.33170        8.57150       -2.28060
C         10.96270        8.86690       -2.89500
C         13.11140        9.93040       -0.23900
C         12.88320       10.03500        1.16070
Cl        13.64470       11.22390        2.13730
Cl        14.22060       10.94960       -1.06280
C         10.09820        9.00510        3.24790
S          8.84450        9.32120        2.08610
C         13.73500        8.57810        4.05630
C         14.23920        8.31430        5.27880
S         13.03750        8.20870        6.51900
H         -5.69320      -17.93890        4.50090
H         -3.98640      -17.29040        2.64380
H          0.73100      -15.95090       -1.41350
H         -0.58320      -15.70760       -2.58070
H         -1.33870      -18.06060       -2.20360
H          0.33900      -18.00810       -2.75700
H         -0.01980      -18.29670       -1.05180
H        -11.49500      -10.75570        4.95500
H        -10.34710       -9.61400        4.23470
H        -10.31260       -9.43730        6.70720
H         -8.75550      -10.01670        6.10540
H         -9.89570      -11.14870        6.83950
H         -7.44760      -11.24170        1.00620
H         -3.92300      -10.36140       -2.12810
H          0.58900       -9.80450       -6.10270
H         -0.79600       -9.60130       -7.19160
H          1.01830       -8.01060       -7.77630
H         -0.41970       -7.14270       -7.22620
H          0.96530       -7.33210       -6.14560
H        -11.30240       -3.61130       -1.86610
H        -11.55680       -3.77520       -0.11770
H        -12.41540       -6.09030       -0.46270
H        -13.35780       -4.92310       -1.39560
H        -12.15380       -5.93400       -2.20280
H         -6.66510       -3.78550       -2.73160
H         -2.83730       -2.79560       -5.44490
H          2.42720       -2.56710       -8.04410
H          2.09250       -3.32940       -6.47680
H          0.16170       -4.54740       -7.48700
H          0.51390       -3.80620       -9.05170
H          1.66880       -4.92920       -8.32640
H         -7.00380        3.42780        0.74950
H         -8.45800        3.83770       -0.17700
H         -7.23700        5.89200        0.52080
H         -5.78120        5.32310       -0.30290
H         -7.21990        5.74120       -1.23790
H         -3.51390        3.89880       -3.09870
H          1.09820        4.40780       -4.27280
H          7.07870        3.78790       -3.73700
H          7.05020        4.26920       -5.44430
H          7.76810        6.57040       -4.79970
H          8.92510        5.36920       -4.21720
H          7.76840        6.09950       -3.09720
H         -4.28620        8.88530        2.97840
H         -3.35450        7.51800        3.61080
H         -1.47300        9.04110        4.17820
H         -2.38890       10.41790        3.55370
H         -2.96310        9.55010        4.98070
H          1.24520        8.90950        1.21560
H          1.72140        9.42280        3.01610
H          1.62440       10.31230        5.28560
H          3.70340       10.88620        6.50450
H          7.56960        8.84910        5.45730
H         10.19800        8.83970       11.20960
H          9.05110        7.49460       11.36700
H          8.06010        9.61200       12.21530
H          8.30700       10.37090       10.63810
H          7.17180        9.02820       10.80450
H         13.10720        9.12690       -2.81010
H         12.54490        7.50400       -2.37620
H         10.95300        8.57740       -3.94240
H         10.18710        8.31250       -2.37170
H         10.73760        9.92810       -2.82490
H         14.33490        8.66130        3.16910
H         15.26640        8.16530        5.54900
