
  xtb     03012208143D
 energy: -392.266361064637 gnorm: 0.000233778823 xtb: 6.4.1 (unknown)
196219  0     0  0            999 V2000
   -6.2268    1.8713  -15.4754 C   0  0  0  0  0  0  0  0  0  0  0  0
   -6.5413    2.1142  -14.1871 C   0  0  0  0  0  0  0  0  0  0  0  0
   -6.3278    0.9851  -13.3438 C   0  0  0  0  0  0  0  0  0  0  0  0
   -6.5093    0.8845  -11.9558 C   0  0  0  0  0  0  0  0  0  0  0  0
   -7.0462    1.9793  -11.1634 C   0  0  0  0  0  0  0  0  0  0  0  0
   -6.2125    2.5540   -9.7502 S   0  0  0  0  0  0  0  0  0  0  0  0
   -7.4421    3.7215   -9.4032 C   0  0  0  0  0  0  0  0  0  0  0  0
   -7.3527    4.5864   -8.1947 C   0  0  0  0  0  0  0  0  0  0  0  0
   -7.6309    3.7826   -6.9225 C   0  0  0  0  0  0  0  0  0  0  0  0
   -8.4354    3.6535  -10.3337 C   0  0  0  0  0  0  0  0  0  0  0  0
   -9.8341    4.6486  -10.3219 Cl  0  0  0  0  0  0  0  0  0  0  0  0
   -8.2124    2.6704  -11.3362 C   0  0  0  0  0  0  0  0  0  0  0  0
   -9.3491    2.3450  -12.5806 Cl  0  0  0  0  0  0  0  0  0  0  0  0
   -6.1507   -0.3163  -11.3595 C   0  0  0  0  0  0  0  0  0  0  0  0
   -5.6402   -1.4223  -12.0803 C   0  0  0  0  0  0  0  0  0  0  0  0
   -5.4476   -1.3167  -13.4684 C   0  0  0  0  0  0  0  0  0  0  0  0
   -4.8534   -2.4018  -14.2312 C   0  0  0  0  0  0  0  0  0  0  0  0
   -5.6184   -3.0511  -15.6503 S   0  0  0  0  0  0  0  0  0  0  0  0
   -4.3363   -4.1809  -15.9196 C   0  0  0  0  0  0  0  0  0  0  0  0
   -4.3886   -5.1618  -17.0383 C   0  0  0  0  0  0  0  0  0  0  0  0
   -5.0761   -6.4569  -16.5988 C   0  0  0  0  0  0  0  0  0  0  0  0
   -3.3817   -4.0545  -14.9545 C   0  0  0  0  0  0  0  0  0  0  0  0
   -3.6684   -3.0446  -13.9984 C   0  0  0  0  0  0  0  0  0  0  0  0
   -2.5798   -2.6342  -12.7344 Cl  0  0  0  0  0  0  0  0  0  0  0  0
   -1.9543   -5.0057  -14.8911 Cl  0  0  0  0  0  0  0  0  0  0  0  0
   -5.8161   -0.1178  -14.0678 C   0  0  0  0  0  0  0  0  0  0  0  0
   -5.6424    0.2674  -15.7573 S   0  0  0  0  0  0  0  0  0  0  0  0
   -5.3984   -2.5398  -11.2419 C   0  0  0  0  0  0  0  0  0  0  0  0
   -5.6834   -2.3084   -9.9263 C   0  0  0  0  0  0  0  0  0  0  0  0
   -6.2974   -0.6811   -9.6677 S   0  0  0  0  0  0  0  0  0  0  0  0
   -5.4877   -3.1251   -8.7760 C   0  0  0  0  0  0  0  0  0  0  0  0
   -5.3503   -2.3373   -7.2488 S   0  0  0  0  0  0  0  0  0  0  0  0
   -5.0183   -3.8048   -6.3989 C   0  0  0  0  0  0  0  0  0  0  0  0
   -5.0639   -4.8948   -7.2763 C   0  0  0  0  0  0  0  0  0  0  0  0
   -5.3321   -4.5086   -8.6355 C   0  0  0  0  0  0  0  0  0  0  0  0
   -5.4623   -5.4917   -9.6389 C   0  0  0  0  0  0  0  0  0  0  0  0
   -5.3137   -6.8105   -9.3244 C   0  0  0  0  0  0  0  0  0  0  0  0
   -5.0509   -7.2110   -8.0022 C   0  0  0  0  0  0  0  0  0  0  0  0
   -4.9440   -6.2776   -7.0137 C   0  0  0  0  0  0  0  0  0  0  0  0
   -4.7460   -6.7061   -5.7519 F   0  0  0  0  0  0  0  0  0  0  0  0
   -4.7006   -3.6707   -5.0149 C   0  0  0  0  0  0  0  0  0  0  0  0
   -3.9299   -4.4308   -4.1822 C   0  0  0  0  0  0  0  0  0  0  0  0
   -3.7239   -3.8443   -2.9092 C   0  0  0  0  0  0  0  0  0  0  0  0
   -2.8998   -4.3087   -1.8683 C   0  0  0  0  0  0  0  0  0  0  0  0
   -2.2738   -5.6173   -1.9156 C   0  0  0  0  0  0  0  0  0  0  0  0
   -0.5738   -5.8172   -1.6079 S   0  0  0  0  0  0  0  0  0  0  0  0
   -0.6631   -7.5359   -1.7926 C   0  0  0  0  0  0  0  0  0  0  0  0
    0.5468   -8.3837   -1.6065 C   0  0  0  0  0  0  0  0  0  0  0  0
    1.1246   -8.2240   -0.1999 C   0  0  0  0  0  0  0  0  0  0  0  0
   -1.9413   -7.9152   -2.0756 C   0  0  0  0  0  0  0  0  0  0  0  0
   -2.4299   -9.5418   -2.3188 Cl  0  0  0  0  0  0  0  0  0  0  0  0
   -2.8584   -6.8314   -2.1511 C   0  0  0  0  0  0  0  0  0  0  0  0
   -4.5360   -7.0564   -2.4226 Cl  0  0  0  0  0  0  0  0  0  0  0  0
   -2.6848   -3.4416   -0.8050 C   0  0  0  0  0  0  0  0  0  0  0  0
   -3.2910   -2.1653   -0.7030 C   0  0  0  0  0  0  0  0  0  0  0  0
   -4.1802   -1.7356   -1.7037 C   0  0  0  0  0  0  0  0  0  0  0  0
   -4.8291   -0.4363   -1.6616 C   0  0  0  0  0  0  0  0  0  0  0  0
   -3.9168    1.0308   -1.4538 S   0  0  0  0  0  0  0  0  0  0  0  0
   -5.3229    2.0237   -1.6205 C   0  0  0  0  0  0  0  0  0  0  0  0
   -5.2334    3.5097   -1.6011 C   0  0  0  0  0  0  0  0  0  0  0  0
   -5.0833    4.0633   -3.0205 C   0  0  0  0  0  0  0  0  0  0  0  0
   -6.4265    1.2504   -1.8249 C   0  0  0  0  0  0  0  0  0  0  0  0
   -6.1525   -0.1428   -1.8468 C   0  0  0  0  0  0  0  0  0  0  0  0
   -7.3883   -1.3192   -2.0064 Cl  0  0  0  0  0  0  0  0  0  0  0  0
   -8.0073    1.8828   -2.0356 Cl  0  0  0  0  0  0  0  0  0  0  0  0
   -4.3594   -2.5836   -2.7888 C   0  0  0  0  0  0  0  0  0  0  0  0
   -5.2423   -2.1914   -4.2299 S   0  0  0  0  0  0  0  0  0  0  0  0
   -2.8589   -1.4648    0.4491 C   0  0  0  0  0  0  0  0  0  0  0  0
   -1.9508   -2.1574    1.1945 C   0  0  0  0  0  0  0  0  0  0  0  0
   -1.6273   -3.7504    0.5407 S   0  0  0  0  0  0  0  0  0  0  0  0
   -1.1732   -1.6919    2.2933 C   0  0  0  0  0  0  0  0  0  0  0  0
   -0.1786   -2.3742    2.9297 C   0  0  0  0  0  0  0  0  0  0  0  0
    0.5684   -1.5776    3.8278 C   0  0  0  0  0  0  0  0  0  0  0  0
    1.6863   -1.9557    4.5912 C   0  0  0  0  0  0  0  0  0  0  0  0
    2.2455   -3.2928    4.4829 C   0  0  0  0  0  0  0  0  0  0  0  0
    2.5297   -4.2744    5.8893 S   0  0  0  0  0  0  0  0  0  0  0  0
    3.1290   -5.5938    4.9442 C   0  0  0  0  0  0  0  0  0  0  0  0
    3.5282   -6.8815    5.5758 C   0  0  0  0  0  0  0  0  0  0  0  0
    2.3272   -7.8213    5.7075 C   0  0  0  0  0  0  0  0  0  0  0  0
    3.1028   -5.2770    3.6187 C   0  0  0  0  0  0  0  0  0  0  0  0
    3.6139   -6.3385    2.3719 Cl  0  0  0  0  0  0  0  0  0  0  0  0
    2.6112   -3.9714    3.3522 C   0  0  0  0  0  0  0  0  0  0  0  0
    2.5753   -3.3120    1.7664 Cl  0  0  0  0  0  0  0  0  0  0  0  0
    2.2403   -0.9862    5.4151 C   0  0  0  0  0  0  0  0  0  0  0  0
    1.7431    0.3382    5.4873 C   0  0  0  0  0  0  0  0  0  0  0  0
    0.6321    0.7203    4.7136 C   0  0  0  0  0  0  0  0  0  0  0  0
    0.1012    2.0720    4.7788 C   0  0  0  0  0  0  0  0  0  0  0  0
   -0.3499    2.7771    6.3044 S   0  0  0  0  0  0  0  0  0  0  0  0
   -0.8702    4.2503    5.5614 C   0  0  0  0  0  0  0  0  0  0  0  0
   -1.4623    5.3535    6.3666 C   0  0  0  0  0  0  0  0  0  0  0  0
   -2.9549    5.1148    6.6069 C   0  0  0  0  0  0  0  0  0  0  0  0
   -0.7031    4.1817    4.2108 C   0  0  0  0  0  0  0  0  0  0  0  0
   -0.1488    2.9521    3.7627 C   0  0  0  0  0  0  0  0  0  0  0  0
    0.2407    2.6704    2.1177 Cl  0  0  0  0  0  0  0  0  0  0  0  0
   -1.1060    5.4531    3.1318 Cl  0  0  0  0  0  0  0  0  0  0  0  0
    0.0735   -0.2504    3.8933 C   0  0  0  0  0  0  0  0  0  0  0  0
   -1.2946   -0.0334    2.8392 S   0  0  0  0  0  0  0  0  0  0  0  0
    2.5448    1.1563    6.3192 C   0  0  0  0  0  0  0  0  0  0  0  0
    3.6050    0.4996    6.8701 C   0  0  0  0  0  0  0  0  0  0  0  0
    3.6611   -1.1877    6.4000 S   0  0  0  0  0  0  0  0  0  0  0  0
    4.6358    1.0490    7.6860 C   0  0  0  0  0  0  0  0  0  0  0  0
    5.6815    0.3930    8.2638 C   0  0  0  0  0  0  0  0  0  0  0  0
    6.5804    1.2506    8.9428 C   0  0  0  0  0  0  0  0  0  0  0  0
    7.7897    0.9121    9.5743 C   0  0  0  0  0  0  0  0  0  0  0  0
    8.2946   -0.4504    9.5512 C   0  0  0  0  0  0  0  0  0  0  0  0
    8.7591   -1.2702   11.0116 S   0  0  0  0  0  0  0  0  0  0  0  0
    9.2043   -2.7065   10.1555 C   0  0  0  0  0  0  0  0  0  0  0  0
    9.7730   -3.8818   10.8701 C   0  0  0  0  0  0  0  0  0  0  0  0
   11.2555   -3.6645   11.1822 C   0  0  0  0  0  0  0  0  0  0  0  0
    9.0121   -2.5393    8.8165 C   0  0  0  0  0  0  0  0  0  0  0  0
    9.3504   -3.7428    7.6408 Cl  0  0  0  0  0  0  0  0  0  0  0  0
    8.4923   -1.2634    8.4694 C   0  0  0  0  0  0  0  0  0  0  0  0
    8.2305   -0.7881    6.8404 Cl  0  0  0  0  0  0  0  0  0  0  0  0
    8.4913    1.9417   10.1851 C   0  0  0  0  0  0  0  0  0  0  0  0
    8.0565    3.2884   10.1621 C   0  0  0  0  0  0  0  0  0  0  0  0
    6.8613    3.6337    9.5063 C   0  0  0  0  0  0  0  0  0  0  0  0
    6.4322    5.0193    9.4169 C   0  0  0  0  0  0  0  0  0  0  0  0
    7.5158    6.2442    8.8201 S   0  0  0  0  0  0  0  0  0  0  0  0
    6.3305    7.4951    8.9924 C   0  0  0  0  0  0  0  0  0  0  0  0
    6.6566    8.9082    8.6555 C   0  0  0  0  0  0  0  0  0  0  0  0
    7.7731    9.4496    9.5492 C   0  0  0  0  0  0  0  0  0  0  0  0
    5.1714    6.9775    9.4859 C   0  0  0  0  0  0  0  0  0  0  0  0
    5.2226    5.5759    9.7236 C   0  0  0  0  0  0  0  0  0  0  0  0
    3.9105    4.7183   10.4155 Cl  0  0  0  0  0  0  0  0  0  0  0  0
    3.7624    7.9046    9.8031 Cl  0  0  0  0  0  0  0  0  0  0  0  0
    6.1485    2.6007    8.9117 C   0  0  0  0  0  0  0  0  0  0  0  0
    4.6829    2.7732    7.9911 S   0  0  0  0  0  0  0  0  0  0  0  0
    8.9516    4.1468   10.8450 C   0  0  0  0  0  0  0  0  0  0  0  0
   10.0545    3.5110   11.3369 C   0  0  0  0  0  0  0  0  0  0  0  0
   10.0152    1.7856   11.0098 S   0  0  0  0  0  0  0  0  0  0  0  0
   11.1511    4.0781   12.0508 C   0  0  0  0  0  0  0  0  0  0  0  0
   12.0534    3.1155   13.1715 S   0  0  0  0  0  0  0  0  0  0  0  0
   13.0545    4.4173   13.6134 C   0  0  0  0  0  0  0  0  0  0  0  0
   12.7364    5.5653   12.9214 C   0  0  0  0  0  0  0  0  0  0  0  0
   11.6450    5.3836   12.0050 C   0  0  0  0  0  0  0  0  0  0  0  0
   11.2576    6.4579   11.1716 C   0  0  0  0  0  0  0  0  0  0  0  0
   11.8882    7.6614   11.2842 C   0  0  0  0  0  0  0  0  0  0  0  0
   12.9310    7.8700   12.2140 C   0  0  0  0  0  0  0  0  0  0  0  0
   13.3442    6.8414   13.0004 C   0  0  0  0  0  0  0  0  0  0  0  0
   14.3578    7.0126   13.8747 F   0  0  0  0  0  0  0  0  0  0  0  0
   -6.2950    2.5437  -16.3081 H   0  0  0  0  0  0  0  0  0  0  0  0
   -6.9018    3.0605  -13.8291 H   0  0  0  0  0  0  0  0  0  0  0  0
   -8.0802    5.3941   -8.2895 H   0  0  0  0  0  0  0  0  0  0  0  0
   -6.3532    5.0222   -8.1329 H   0  0  0  0  0  0  0  0  0  0  0  0
   -8.6282    3.3516   -6.9581 H   0  0  0  0  0  0  0  0  0  0  0  0
   -7.5620    4.4287   -6.0514 H   0  0  0  0  0  0  0  0  0  0  0  0
   -6.9083    2.9763   -6.8200 H   0  0  0  0  0  0  0  0  0  0  0  0
   -4.9338   -4.7253  -17.8763 H   0  0  0  0  0  0  0  0  0  0  0  0
   -3.3687   -5.3825  -17.3594 H   0  0  0  0  0  0  0  0  0  0  0  0
   -4.5342   -6.9082  -15.7716 H   0  0  0  0  0  0  0  0  0  0  0  0
   -6.0950   -6.2531  -16.2785 H   0  0  0  0  0  0  0  0  0  0  0  0
   -5.1037   -7.1633  -17.4239 H   0  0  0  0  0  0  0  0  0  0  0  0
   -4.9912   -3.4624  -11.6079 H   0  0  0  0  0  0  0  0  0  0  0  0
   -5.7081   -5.1934  -10.6439 H   0  0  0  0  0  0  0  0  0  0  0  0
   -5.4148   -7.5672  -10.0865 H   0  0  0  0  0  0  0  0  0  0  0  0
   -4.9549   -8.2557   -7.7532 H   0  0  0  0  0  0  0  0  0  0  0  0
   -3.4620   -5.3501   -4.4750 H   0  0  0  0  0  0  0  0  0  0  0  0
    0.2701   -9.4243   -1.7832 H   0  0  0  0  0  0  0  0  0  0  0  0
    1.3061   -8.1000   -2.3400 H   0  0  0  0  0  0  0  0  0  0  0  0
    2.0023   -8.8537   -0.0815 H   0  0  0  0  0  0  0  0  0  0  0  0
    1.4114   -7.1896   -0.0255 H   0  0  0  0  0  0  0  0  0  0  0  0
    0.3875   -8.5092    0.5468 H   0  0  0  0  0  0  0  0  0  0  0  0
   -6.1430    3.9113   -1.1495 H   0  0  0  0  0  0  0  0  0  0  0  0
   -4.3775    3.8134   -0.9966 H   0  0  0  0  0  0  0  0  0  0  0  0
   -4.1788    3.6763   -3.4835 H   0  0  0  0  0  0  0  0  0  0  0  0
   -5.0253    5.1481   -2.9932 H   0  0  0  0  0  0  0  0  0  0  0  0
   -5.9361    3.7729   -3.6287 H   0  0  0  0  0  0  0  0  0  0  0  0
   -3.1791   -0.4709    0.7044 H   0  0  0  0  0  0  0  0  0  0  0  0
    0.0166   -3.4137    2.7409 H   0  0  0  0  0  0  0  0  0  0  0  0
    4.2936   -7.3534    4.9566 H   0  0  0  0  0  0  0  0  0  0  0  0
    3.9477   -6.6850    6.5636 H   0  0  0  0  0  0  0  0  0  0  0  0
    1.9061   -8.0333    4.7280 H   0  0  0  0  0  0  0  0  0  0  0  0
    2.6346   -8.7576    6.1650 H   0  0  0  0  0  0  0  0  0  0  0  0
    1.5578   -7.3656    6.3262 H   0  0  0  0  0  0  0  0  0  0  0  0
   -0.9460    5.4197    7.3258 H   0  0  0  0  0  0  0  0  0  0  0  0
   -1.3239    6.2929    5.8281 H   0  0  0  0  0  0  0  0  0  0  0  0
   -3.4845    5.0573    5.6593 H   0  0  0  0  0  0  0  0  0  0  0  0
   -3.3736    5.9293    7.1917 H   0  0  0  0  0  0  0  0  0  0  0  0
   -3.1057    4.1830    7.1469 H   0  0  0  0  0  0  0  0  0  0  0  0
    2.3611    2.2015    6.4909 H   0  0  0  0  0  0  0  0  0  0  0  0
    5.7971   -0.6738    8.2042 H   0  0  0  0  0  0  0  0  0  0  0  0
    9.6548   -4.7648   10.2397 H   0  0  0  0  0  0  0  0  0  0  0  0
    9.2266   -4.0402   11.8017 H   0  0  0  0  0  0  0  0  0  0  0  0
   11.6575   -4.5282   11.7046 H   0  0  0  0  0  0  0  0  0  0  0  0
   11.8169   -3.5207   10.2625 H   0  0  0  0  0  0  0  0  0  0  0  0
   11.3832   -2.7848   11.8086 H   0  0  0  0  0  0  0  0  0  0  0  0
    5.7542    9.5088    8.7787 H   0  0  0  0  0  0  0  0  0  0  0  0
    6.9718    8.9696    7.6108 H   0  0  0  0  0  0  0  0  0  0  0  0
    7.9888   10.4832    9.2927 H   0  0  0  0  0  0  0  0  0  0  0  0
    8.6779    8.8603    9.4188 H   0  0  0  0  0  0  0  0  0  0  0  0
    7.4773    9.4048   10.5945 H   0  0  0  0  0  0  0  0  0  0  0  0
    8.7548    5.1888   11.0085 H   0  0  0  0  0  0  0  0  0  0  0  0
   13.8209    4.2901   14.3513 H   0  0  0  0  0  0  0  0  0  0  0  0
   10.4864    6.3115   10.4333 H   0  0  0  0  0  0  0  0  0  0  0  0
   11.5988    8.4837   10.6481 H   0  0  0  0  0  0  0  0  0  0  0  0
   13.4103    8.8327   12.2900 H   0  0  0  0  0  0  0  0  0  0  0  0
  1  2  2  0  0  0  0
  2  3  1  0  0  0  0
  3  4  2  0  0  0  0
  4  5  1  0  0  0  0
  5  6  1  0  0  0  0
  6  7  1  0  0  0  0
  7  8  1  0  0  0  0
  8  9  1  0  0  0  0
  7 10  2  0  0  0  0
 10 11  1  0  0  0  0
 10 12  1  0  0  0  0
 12 13  1  0  0  0  0
  4 14  1  0  0  0  0
 14 15  2  0  0  0  0
 15 16  1  0  0  0  0
 16 17  1  0  0  0  0
 17 18  1  0  0  0  0
 18 19  1  0  0  0  0
 19 20  1  0  0  0  0
 20 21  1  0  0  0  0
 19 22  2  0  0  0  0
 22 23  1  0  0  0  0
 23 24  1  0  0  0  0
 22 25  1  0  0  0  0
 16 26  2  0  0  0  0
 26 27  1  0  0  0  0
 15 28  1  0  0  0  0
 28 29  2  0  0  0  0
 29 30  1  0  0  0  0
 29 31  1  0  0  0  0
 31 32  1  0  0  0  0
 32 33  1  0  0  0  0
 33 34  2  0  0  0  0
 34 35  1  0  0  0  0
 35 36  1  0  0  0  0
 36 37  2  0  0  0  0
 37 38  1  0  0  0  0
 38 39  2  0  0  0  0
 39 40  1  0  0  0  0
 33 41  1  0  0  0  0
 41 42  2  0  0  0  0
 42 43  1  0  0  0  0
 43 44  2  0  0  0  0
 44 45  1  0  0  0  0
 45 46  1  0  0  0  0
 46 47  1  0  0  0  0
 47 48  1  0  0  0  0
 48 49  1  0  0  0  0
 47 50  2  0  0  0  0
 50 51  1  0  0  0  0
 50 52  1  0  0  0  0
 52 53  1  0  0  0  0
 44 54  1  0  0  0  0
 54 55  2  0  0  0  0
 55 56  1  0  0  0  0
 56 57  1  0  0  0  0
 57 58  1  0  0  0  0
 58 59  1  0  0  0  0
 59 60  1  0  0  0  0
 60 61  1  0  0  0  0
 59 62  2  0  0  0  0
 62 63  1  0  0  0  0
 63 64  1  0  0  0  0
 62 65  1  0  0  0  0
 56 66  2  0  0  0  0
 66 67  1  0  0  0  0
 55 68  1  0  0  0  0
 68 69  2  0  0  0  0
 69 70  1  0  0  0  0
 69 71  1  0  0  0  0
 71 72  2  0  0  0  0
 72 73  1  0  0  0  0
 73 74  2  0  0  0  0
 74 75  1  0  0  0  0
 75 76  1  0  0  0  0
 76 77  1  0  0  0  0
 77 78  1  0  0  0  0
 78 79  1  0  0  0  0
 77 80  2  0  0  0  0
 80 81  1  0  0  0  0
 80 82  1  0  0  0  0
 82 83  1  0  0  0  0
 74 84  1  0  0  0  0
 84 85  2  0  0  0  0
 85 86  1  0  0  0  0
 86 87  1  0  0  0  0
 87 88  1  0  0  0  0
 88 89  1  0  0  0  0
 89 90  1  0  0  0  0
 90 91  1  0  0  0  0
 89 92  2  0  0  0  0
 92 93  1  0  0  0  0
 93 94  1  0  0  0  0
 92 95  1  0  0  0  0
 86 96  2  0  0  0  0
 96 97  1  0  0  0  0
 85 98  1  0  0  0  0
 98 99  2  0  0  0  0
 99100  1  0  0  0  0
 99101  1  0  0  0  0
101102  2  0  0  0  0
102103  1  0  0  0  0
103104  2  0  0  0  0
104105  1  0  0  0  0
105106  1  0  0  0  0
106107  1  0  0  0  0
107108  1  0  0  0  0
108109  1  0  0  0  0
107110  2  0  0  0  0
110111  1  0  0  0  0
110112  1  0  0  0  0
112113  1  0  0  0  0
104114  1  0  0  0  0
114115  2  0  0  0  0
115116  1  0  0  0  0
116117  1  0  0  0  0
117118  1  0  0  0  0
118119  1  0  0  0  0
119120  1  0  0  0  0
120121  1  0  0  0  0
119122  2  0  0  0  0
122123  1  0  0  0  0
123124  1  0  0  0  0
122125  1  0  0  0  0
116126  2  0  0  0  0
126127  1  0  0  0  0
115128  1  0  0  0  0
128129  2  0  0  0  0
129130  1  0  0  0  0
129131  1  0  0  0  0
131132  1  0  0  0  0
132133  1  0  0  0  0
133134  2  0  0  0  0
134135  1  0  0  0  0
135136  1  0  0  0  0
136137  2  0  0  0  0
137138  1  0  0  0  0
138139  2  0  0  0  0
139140  1  0  0  0  0
 27  1  1  0  0  0  0
 35 31  2  0  0  0  0
 67 41  1  0  0  0  0
 97 71  1  0  0  0  0
127101  1  0  0  0  0
135131  2  0  0  0  0
 26  3  1  0  0  0  0
 39 34  1  0  0  0  0
 66 43  1  0  0  0  0
 96 73  1  0  0  0  0
126103  1  0  0  0  0
139134  1  0  0  0  0
 12  5  2  0  0  0  0
 30 14  1  0  0  0  0
 52 45  2  0  0  0  0
 70 54  1  0  0  0  0
 82 75  2  0  0  0  0
100 84  1  0  0  0  0
112105  2  0  0  0  0
130114  1  0  0  0  0
 23 17  2  0  0  0  0
 63 57  2  0  0  0  0
 93 87  2  0  0  0  0
123117  2  0  0  0  0
  1141  1  0  0  0  0
  2142  1  0  0  0  0
  8143  1  0  0  0  0
  8144  1  0  0  0  0
  9145  1  0  0  0  0
  9146  1  0  0  0  0
  9147  1  0  0  0  0
 20148  1  0  0  0  0
 20149  1  0  0  0  0
 21150  1  0  0  0  0
 21151  1  0  0  0  0
 21152  1  0  0  0  0
 28153  1  0  0  0  0
 36154  1  0  0  0  0
 37155  1  0  0  0  0
 38156  1  0  0  0  0
 42157  1  0  0  0  0
 48158  1  0  0  0  0
 48159  1  0  0  0  0
 49160  1  0  0  0  0
 49161  1  0  0  0  0
 49162  1  0  0  0  0
 60163  1  0  0  0  0
 60164  1  0  0  0  0
 61165  1  0  0  0  0
 61166  1  0  0  0  0
 61167  1  0  0  0  0
 68168  1  0  0  0  0
 72169  1  0  0  0  0
 78170  1  0  0  0  0
 78171  1  0  0  0  0
 79172  1  0  0  0  0
 79173  1  0  0  0  0
 79174  1  0  0  0  0
 90175  1  0  0  0  0
 90176  1  0  0  0  0
 91177  1  0  0  0  0
 91178  1  0  0  0  0
 91179  1  0  0  0  0
 98180  1  0  0  0  0
102181  1  0  0  0  0
108182  1  0  0  0  0
108183  1  0  0  0  0
109184  1  0  0  0  0
109185  1  0  0  0  0
109186  1  0  0  0  0
120187  1  0  0  0  0
120188  1  0  0  0  0
121189  1  0  0  0  0
121190  1  0  0  0  0
121191  1  0  0  0  0
128192  1  0  0  0  0
133193  1  0  0  0  0
136194  1  0  0  0  0
137195  1  0  0  0  0
138196  1  0  0  0  0
M  END
