196

C         17.69210       -3.29170        3.13140
C         17.30850       -2.24740        2.36940
C         15.91490       -2.26410        2.06990
C         15.19050       -1.37290        1.26400
C         15.82080       -0.21120        0.65580
S         16.65320        0.97400        1.61810
C         17.03720        1.94230        0.23600
C         17.75980        3.23660        0.37420
C         16.78320        4.38060        0.65800
C         16.53810        1.36990       -0.89540
Cl        16.72260        2.03650       -2.46560
C         15.85020        0.14840       -0.66250
Cl        15.20450       -0.80080       -1.93490
C         13.84310       -1.65010        1.06920
C         13.19900       -2.77210        1.64670
C         13.91530       -3.64640        2.48130
C         13.26390       -4.76380        3.14510
S         12.31240       -5.92930        2.27030
C         11.93990       -6.82700        3.70500
C         11.10130       -8.05590        3.65190
C         11.78110       -9.16510        2.84880
C         12.52890       -6.24650        4.78710
C         13.27460       -5.07680        4.47620
Cl        14.01690       -4.12200        5.68980
Cl        12.39030       -6.83930        6.39170
C         15.26800       -3.37710        2.65920
S         16.39810       -4.35940        3.54620
C         11.82440       -2.81780        1.31050
C         11.42230       -1.78090        0.52130
S         12.72450       -0.67430        0.16040
C         10.09760       -1.58810        0.01680
C          9.16450       -2.56820       -0.15140
C          7.91000       -2.08580       -0.59320
C          6.72940       -2.81870       -0.81120
C          6.69620       -4.26280       -0.65220
S          7.31090       -5.03800        0.78000
C          6.92990       -6.61840        0.19030
C          7.30500       -7.83990        0.95440
C          8.69720       -8.32520        0.54040
C          6.36060       -6.53570       -1.04480
Cl         5.85530       -7.89930       -1.95470
C          6.22100       -5.20500       -1.52340
Cl         5.60940       -4.86020       -3.08610
C          5.59730       -2.09280       -1.16020
C          5.60860       -0.68600       -1.33640
C          6.80490        0.03730       -1.18040
C          6.84740        1.47720       -1.37340
S          5.73010        2.53240       -0.55710
C          6.41490        3.95040       -1.27640
C          5.83370        5.29520       -1.01320
C          4.46210        5.43760       -1.67570
C          7.44570        3.60930       -2.09910
C          7.69920        2.21090       -2.15160
Cl         8.90030        1.53700       -3.17080
Cl         8.37040        4.73970       -2.99970
C          7.92880       -0.68300       -0.79580
S          9.48840       -0.00970       -0.41690
C          4.32130       -0.18370       -1.64260
C          3.35150       -1.14350       -1.65760
S          3.99370       -2.73880       -1.34490
C          1.94970       -0.94530       -1.84380
C          1.27810        0.24210       -1.79030
C         -0.12160        0.10590       -1.94790
C         -1.10540        1.11050       -1.87770
C         -0.74430        2.51460       -1.80590
S         -1.47620        3.59010       -0.65160
C         -0.57810        4.95070       -1.22870
C         -0.78780        6.31300       -0.66610
C         -1.87250        7.05850       -1.44770
C          0.22930        4.58150       -2.26310
Cl         1.25540        5.66740       -3.10710
C          0.14330        3.20230       -2.59010
Cl         1.01040        2.52150       -3.90690
C         -2.42920        0.69070       -1.88580
C         -2.81180       -0.66480       -2.04550
C         -1.82800       -1.66080       -2.16700
C         -2.17370       -3.06490       -2.31140
S         -1.50770       -4.01790       -3.60390
C         -2.33550       -5.44410       -3.08330
C         -2.13880       -6.74430       -3.78080
C         -0.88060       -7.44780       -3.26550
C         -3.07070       -5.18430       -1.96520
C         -2.98550       -3.83580       -1.52610
Cl        -3.76130       -3.28230       -0.09770
Cl        -4.02220       -6.35770       -1.15090
C         -0.50380       -1.24810       -2.10770
S          0.87950       -2.30320       -2.10590
C         -4.21960       -0.82040       -2.05070
C         -4.89590        0.34590       -1.85190
S         -3.81980        1.72430       -1.72250
C         -6.29560        0.52620       -1.65990
C         -6.93480        1.68730       -1.33830
C         -8.31800        1.52270       -1.09320
C         -9.24840        2.49670       -0.68440
C         -8.83470        3.86740       -0.43320
S         -7.50440        4.21100        0.63470
C         -7.66390        5.92040        0.41540
C         -6.71160        6.86380        1.06310
C         -5.33860        6.80150        0.39000
C         -8.69020        6.19230       -0.43820
Cl        -9.15320        7.77630       -0.90990
C         -9.36050        5.03300       -0.91600
Cl       -10.63600        5.12030       -2.05730
C        -10.55530        2.07400       -0.49380
C        -10.97180        0.73360       -0.69310
C        -10.03460       -0.24440       -1.07270
C        -10.41610       -1.64100       -1.19430
S        -10.06540       -2.56090       -2.62680
C        -10.79100       -3.99210       -1.97970
C        -10.88680       -5.24140       -2.78360
C        -12.13830       -5.23000       -3.66490
C        -11.27440       -3.75440       -0.72750
C        -11.05920       -2.42510       -0.27630
Cl       -11.49570       -1.90640        1.30100
Cl       -12.06210       -4.93670        0.23530
C         -8.72980        0.18050       -1.27930
S         -7.38830       -0.84210       -1.71260
C        -12.35080        0.56780       -0.44230
C        -12.98280        1.70500       -0.01180
S        -11.87310        3.06140        0.06520
C        -14.34830        1.79870        0.36590
S        -15.26680        0.33030        0.47550
C        -16.69730        1.14690        1.00030
C        -16.48420        2.52640        1.03740
C        -15.14080        2.90260        0.70030
C        -14.77940        4.26710        0.70130
C        -15.71440        5.21880        0.98490
C        -17.05330        4.87130        1.24750
C        -17.42240        3.55980        1.26150
F        -18.72220        3.24830        1.44750
C        -17.86030        0.40340        1.35840
S        -18.39900       -0.92420        0.38070
C        -19.71800       -1.25020        1.40530
C        -19.74980       -0.39760        2.48650
C        -18.67450        0.55290        2.48080
C        -18.51370        1.43120        3.57540
C        -19.41490        1.40400        4.59710
C        -20.51050        0.51180        4.59410
C        -20.66310       -0.36580        3.56760
F        -21.68810       -1.24450        3.56480
H         18.67650       -3.51730        3.49220
H         17.98110       -1.48800        2.01560
H         18.48180        3.16420        1.18920
H         18.29710        3.43760       -0.55460
H         16.24230        4.19470        1.58280
H         16.06480        4.47200       -0.15250
H         17.32450        5.31820        0.75180
H         10.92370       -8.39220        4.67460
H         10.13810       -7.81740        3.19500
H         11.15710      -10.05470        2.83700
H         12.73940       -9.42020        3.29390
H         11.94920       -8.84120        1.82440
H         11.15040       -3.57670        1.66060
H          9.37720       -3.60490        0.02720
H          6.57180       -8.62280        0.75200
H          7.29430       -7.61700        2.02250
H          8.70730       -8.57320       -0.51760
H          8.96860       -9.21160        1.10700
H          9.43930       -7.55020        0.72030
H          6.51620        6.05070       -1.40510
H          5.73030        5.44380        0.06400
H          4.54520        5.30200       -2.75120
H          4.05230        6.42500       -1.48130
H          3.77420        4.69170       -1.28370
H          4.12000        0.85070       -1.84610
H          1.76340        1.17880       -1.59140
H          0.15040        6.86810       -0.72460
H         -1.08370        6.23020        0.38050
H         -2.80960        6.50940       -1.40720
H         -2.02690        8.04670       -1.02330
H         -1.57740        7.16850       -2.48790
H         -3.01150       -7.37520       -3.60320
H         -2.04350       -6.57010       -4.85390
H         -0.96910       -7.64490       -2.20010
H         -0.00540       -6.82410       -3.43170
H         -0.74140       -8.39210       -3.78470
H         -4.72000       -1.76210       -2.18200
H         -6.41710        2.62650       -1.26780
H         -7.11660        7.87410        0.98740
H         -6.60700        6.60790        2.11950
H         -4.65460        7.49460        0.87220
H         -5.42330        7.06930       -0.66040
H         -4.92840        5.79660        0.46320
H         -9.99980       -5.33610       -3.41200
H        -10.92760       -6.09360       -2.10270
H        -13.03120       -5.15070       -3.05010
H        -12.19470       -6.14730       -4.24460
H        -12.11010       -4.38510       -4.34880
H        -12.87220       -0.36140       -0.58400
H        -13.76890        4.55280        0.46230
H        -15.44100        6.26220        0.98350
H        -17.79630        5.63380        1.41740
H        -20.40250       -2.04150        1.17430
H        -17.67300        2.10680        3.59680
H        -19.29980        2.07110        5.43720
H        -21.21710        0.51470        5.40860
