138

C          7.86960       -0.13460       10.54960
S          6.22340        0.16340       10.25010
C          6.41070       -0.00090        8.52990
C          7.74540       -0.26710        8.21600
C          8.57880       -0.35070        9.38910
C          9.96450       -0.62260        9.28310
C         10.52280       -0.78800        8.05450
C          9.73790       -0.67150        6.88830
C          8.40240       -0.41430        6.97130
F          7.71400       -0.27160        5.82130
C          5.22580        0.12090        7.74170
C          4.06530        0.71200        8.16860
C          3.00840        0.64340        7.23620
C          1.68990        1.11910        7.38090
C          1.26420        1.82360        8.57850
S          2.12270        3.21910        9.16340
C          1.02680        3.44030       10.48410
C          1.17140        4.58250       11.42800
C          0.43800        5.81980       10.90450
C          0.05480        2.48580       10.45570
Cl        -1.21150        2.37750       11.60880
C          0.18710        1.56640        9.38070
Cl        -0.86250        0.22530        9.18800
C          0.82100        0.88900        6.32500
C          1.21020        0.20140        5.14910
C          2.52360       -0.28380        5.00610
C          2.91140       -0.99640        3.80010
S          1.97070       -2.34710        3.23280
C          2.96810       -2.56180        1.83540
C          2.63140       -3.58940        0.81240
C          1.38440       -3.17850        0.02580
C          3.97080       -1.64010        1.82880
C          3.94850       -0.75500        2.94240
Cl         5.06860        0.53020        3.11480
Cl         5.16140       -1.52880        0.60100
C          3.39520       -0.04750        6.05950
S          5.04650       -0.57360        6.14640
C          0.16940        0.15100        4.20200
C         -0.98920        0.76490        4.60130
S         -0.82780        1.44560        6.20850
C         -2.15660        0.84310        3.79960
S         -2.12280        0.00510        2.28350
C         -3.70670        0.54040        1.82920
C         -4.23230        1.38150        2.81530
C         -3.36860        1.52530        3.95470
C         -3.77320        2.32180        5.04620
C         -4.95710        2.99820        4.99120
C         -5.76790        2.94970        3.84180
C         -5.40290        2.17050        2.78370
F         -6.15600        2.19650        1.66360
C         -4.18830        0.10600        0.56610
S         -3.02140       -0.09270       -0.69420
C         -4.18970       -0.67280       -1.83410
C         -5.45690       -0.72310       -1.24160
C         -5.45270       -0.30830        0.13490
C         -6.61210       -0.44110        0.92560
C         -7.76780       -0.89580        0.36220
C         -7.81260       -1.25260       -0.99720
C         -6.68690       -1.18100       -1.76400
F         -6.76190       -1.59040       -3.04730
C         -3.67290       -0.98950       -3.12370
C         -2.34420       -1.23980       -3.35610
C         -2.01830       -1.40080       -4.71760
C         -0.74780       -1.61460       -5.28690
C          0.45040       -1.60130       -4.46610
S          1.63180       -2.87380       -4.56050
C          2.63570       -2.14200       -3.35550
C          3.93110       -2.74660       -2.93660
C          3.90350       -4.27040       -2.97170
C          2.07570       -0.97780       -2.91870
Cl         2.77850        0.03030       -1.71540
C          0.84050       -0.66570       -3.54650
Cl        -0.00230        0.79560       -3.22520
C         -0.70540       -1.81340       -6.65900
C         -1.85710       -1.76020       -7.48250
C         -3.11320       -1.47010       -6.92010
C         -4.29410       -1.31680       -7.75190
S         -5.76440       -2.17730       -7.40930
C         -6.58560       -1.46540       -8.75540
C         -8.02030       -1.76140       -9.01990
C         -8.92120       -0.95900       -8.07800
C         -5.75940       -0.60590       -9.41620
C         -4.45830       -0.52260       -8.85330
Cl        -3.26020        0.54890       -9.45830
Cl        -6.22050        0.29710      -10.80180
C         -3.16680       -1.31630       -5.54160
S         -4.59730       -0.98080       -4.61020
C         -1.55450       -2.03090       -8.83910
C         -0.22510       -2.22970       -9.07660
S          0.72410       -2.12510       -7.60040
C          0.42990       -2.51350      -10.31060
S          1.93990       -3.36280      -10.30550
C          2.04570       -3.35840      -12.00290
C          0.97290       -2.71510      -12.58010
C          0.03410       -2.21210      -11.61570
C         -1.08100       -1.46870      -12.06430
C         -1.27460       -1.27780      -13.40030
C         -0.38360       -1.80280      -14.36270
C          0.71260       -2.49400      -13.95380
F          1.59080       -2.98200      -14.85610
H          8.24250       -0.13640       11.55400
H         10.55150       -0.68780       10.18570
H         11.57630       -0.99650        7.95170
H         10.19050       -0.77320        5.91490
H          3.98000        1.18820        9.12860
H          0.75420        4.29320       12.39450
H          2.22990        4.81410       11.55740
H          0.84440        6.12020        9.94170
H          0.55010        6.64390       11.60380
H         -0.62090        5.60620       10.78360
H          2.44960       -4.54810        1.30300
H          3.48120       -3.69910        0.13760
H          1.54260       -2.21750       -0.45540
H          0.52980       -3.09550        0.69340
H          1.15860       -3.91730       -0.73880
H          0.26960       -0.30380        3.23360
H         -3.13640        2.39650        5.91230
H         -5.27240        3.60830        5.82280
H         -6.66780        3.54010        3.77890
H         -6.56610       -0.20280        1.97540
H         -8.66080       -1.00000        0.95800
H         -8.72750       -1.61200       -1.44040
H         -1.62750       -1.33260       -2.56040
H          4.16590       -2.38970       -1.93160
H          4.72110       -2.38710       -3.60410
H          3.12020       -4.65410       -2.32300
H          4.85820       -4.66920       -2.63890
H          3.71380       -4.62150       -3.98350
H         -8.20390       -2.82760       -8.87440
H         -8.24710       -1.50490      -10.05620
H         -8.76470        0.10690       -8.22370
H         -8.69600       -1.20460       -7.04290
H         -9.96510       -1.18800       -8.27430
H         -2.30980       -2.13210       -9.59470
H          2.87500       -3.82030      -12.49960
H         -1.75730       -1.03280      -11.34880
H         -2.12300       -0.70720      -13.74490
H         -0.56020       -1.64410      -15.41440
