138

C          3.55850       -1.82880       14.26560
S          2.45310       -1.06580       13.22460
C          3.05730       -1.89600       11.82160
C          4.11310       -2.73750       12.18060
C          4.39020       -2.69750       13.59480
C          5.42130       -3.48590       14.16090
C          6.17510       -4.28160       13.35650
C          5.94970       -4.31210       11.96460
C          4.96030       -3.56220       11.40280
F          4.82200       -3.60420       10.06270
C          2.39710       -1.62440       10.58460
C          1.59460       -0.53690       10.35540
C          1.00110       -0.51980        9.07570
C          0.10140        0.42640        8.54680
C         -0.30820        1.59300        9.31090
S          0.86100        2.68630        9.99250
C         -0.36470        3.71460       10.65190
C         -0.01760        4.96670       11.37870
C          0.10750        6.14410       10.40870
C         -1.60110        3.23020       10.34680
Cl        -3.06660        3.97870       10.83370
C         -1.57400        2.02760        9.59090
Cl        -3.00240        1.18170        9.16420
C         -0.37170        0.19300        7.26480
C          0.00320       -0.93820        6.49820
C          0.88840       -1.89330        7.03230
C          1.25740       -3.06920        6.26320
S          0.03200       -4.09040        5.56490
C          1.20280       -5.15140        4.85840
C          0.77970       -6.29300        4.00160
C          0.28570       -5.79990        2.63940
C          2.46230       -4.72690        5.15670
C          2.49930       -3.55170        5.95720
Cl         3.96940       -2.79100        6.39790
Cl         3.88980       -5.51530        4.62430
C          1.36800       -1.65780        8.31370
S          2.43260       -2.69910        9.20490
C         -0.56450       -0.91120        5.20850
C         -1.35990        0.17920        4.96360
S         -1.42560        1.24190        6.35820
C         -2.04380        0.42350        3.74650
S         -1.84360       -0.73130        2.46760
C         -2.87420        0.13540        1.37060
C         -3.38790        1.27850        2.00490
C         -2.90800        1.45010        3.34710
C         -3.33240        2.55440        4.11440
C         -4.22500        3.44510        3.59310
C         -4.75320        3.26310        2.30400
C         -4.34810        2.20430        1.54470
F         -4.92880        2.03170        0.33610
C         -2.98130       -0.30030        0.02680
S         -3.09670        0.83550       -1.27300
C         -3.01990       -0.38410       -2.50100
C         -2.93670       -1.65630       -1.90800
C         -2.88910       -1.61010       -0.47710
C         -2.83120       -2.80320        0.26870
C         -2.81330       -4.00960       -0.37180
C         -2.89310       -4.07930       -1.77110
C         -2.97270       -2.93220       -2.50800
F         -3.13650       -3.04550       -3.84250
C         -2.93140        0.00920       -3.85990
S         -1.98060       -0.88500       -4.99550
C         -2.17910        0.28630       -6.24470
C         -3.00680        1.33050       -5.81770
C         -3.42620        1.18520       -4.45440
C         -4.30330        2.12760       -3.88220
C         -4.74520        3.18560       -4.62420
C         -4.35670        3.33960       -5.96540
C         -3.52380        2.42620       -6.54280
F         -3.22550        2.57070       -7.85130
C         -1.49100        0.08170       -7.47780
C         -0.93070        0.99720       -8.31960
C         -0.26080        0.41500       -9.42320
C          0.44930        1.06630      -10.44480
C          0.64000        2.50680      -10.42770
S          0.21890        3.50100      -11.78810
C          0.73960        4.94580      -10.99230
C          0.69860        6.26380      -11.68320
C          1.94110        6.45710      -12.55590
C          1.22040        4.65680       -9.75010
Cl         1.84210        5.83310       -8.66610
C          1.15960        3.27620       -9.42370
Cl         1.76420        2.64930       -7.94420
C          0.98330        0.26940      -11.45000
C          0.87150       -1.14020      -11.45690
C          0.18710       -1.79420      -10.42060
C          0.06260       -3.24360      -10.38450
S          1.46310       -4.27310      -10.40690
C          0.50570       -5.71120      -10.30240
C          1.13350       -7.06090      -10.32640
C          1.38710       -7.52040      -11.76410
C         -0.81900       -5.39470      -10.26680
C         -1.07470       -3.99720      -10.30540
Cl        -2.66180       -3.35170      -10.33050
Cl        -2.07750       -6.55740      -10.17880
C         -0.36110       -0.99850       -9.42360
S         -1.20810       -1.56740       -8.01740
C          1.51010       -1.71210      -12.59600
C          2.08710       -0.78810      -13.39070
S          1.89560        0.83440      -12.82190
H          3.55200       -1.60750       15.31380
H          5.59000       -3.43360       15.22500
H          6.96490       -4.89060       13.76760
H          6.56760       -4.92290       11.32590
H          1.44270        0.23310       11.09010
H         -0.80190        5.17770       12.10830
H          0.92660        4.82860       11.90810
H         -0.83150        6.30010        9.88380
H          0.88710        5.94840        9.67630
H          0.35820        7.05090       10.95240
H          1.63150       -6.96120        3.86670
H         -0.02180       -6.84420        4.49800
H          1.07620       -5.26110        2.12300
H         -0.01920       -6.64280        2.02520
H         -0.56360       -5.13210        2.76540
H         -0.38720       -1.66730        4.46550
H         -2.95680        2.68190        5.11560
H         -4.55390        4.28970        4.17750
H         -5.49200        3.94200        1.90960
H         -2.82270       -2.76010        1.34540
H         -2.76610       -4.92540        0.19600
H         -2.92240       -5.03130       -2.27600
H         -4.64420        2.00030       -2.86770
H         -5.41940        3.90700       -4.19040
H         -4.73010        4.16050       -6.55640
H         -0.97600        2.05620       -8.15700
H         -0.19520        6.31900      -12.30660
H          0.65200        7.05360      -10.93130
H          1.90050        7.42100      -13.05580
H          2.83960        6.41820      -11.94530
H          1.99810        5.67380      -13.30800
H          2.07920       -7.03090       -9.78260
H          0.46480       -7.76600       -9.82950
H          2.05770       -6.82870      -12.26860
H          0.45130       -7.56350      -12.31570
H          1.83870       -8.50870      -11.76620
H          1.52580       -2.76710      -12.79860
H          2.62730       -0.94940      -14.30290
