167

C          7.12400      -12.06580        8.85640
C          7.20400      -10.72440        8.74260
C          6.42160      -10.21430        7.66610
C          6.29440       -8.88510        7.23440
C          7.05770       -7.81230        7.85250
S          6.28700       -6.38520        8.47570
C          7.79480       -5.69460        8.97290
C          7.85200       -4.34320        9.59450
C          7.67490       -3.24990        8.53870
C          8.82550       -6.52720        8.65480
Cl        10.47520       -6.18190        8.97910
C          8.41120       -7.73140        8.02400
Cl         9.52430       -8.91420        7.46800
C          5.43320       -8.64580        6.17220
C          4.72920       -9.67640        5.50370
C          4.86160      -11.00810        5.92980
C          4.14030      -12.08760        5.27450
S          4.27010      -12.35800        3.56100
C          3.20290      -13.71860        3.61390
C          2.89390      -14.50970        2.39110
C          3.91650      -15.63090        2.19160
C          2.78440      -13.94160        4.89150
C          3.30950      -13.01780        5.83470
Cl         2.85620      -13.03680        7.48700
Cl         1.71350      -15.20510        5.33920
C          5.71150      -11.24500        7.00400
S          6.08580      -12.80120        7.68650
C          3.93610       -9.17050        4.44370
C          4.02720       -7.81970        4.29260
S          5.10630       -7.08880        5.46450
C          3.36600       -7.00950        3.32350
C          3.31390       -5.64870        3.26560
C          2.57280       -5.15700        2.16350
C          2.34430       -3.81760        1.79930
C          2.89130       -2.72040        2.58030
S          4.58660       -2.64730        2.96340
C          4.41060       -1.15560        3.82340
C          5.57370       -0.52680        4.50720
C          5.95540       -1.31180        5.76420
C          3.10890       -0.75360        3.80930
Cl         2.53700        0.67590        4.56720
C          2.24590       -1.63290        3.10000
Cl         0.55470       -1.37490        3.00470
C          1.60020       -3.59580        0.64810
C          1.07480       -4.64820       -0.14160
C          1.28520       -5.98720        0.23210
C          0.79010       -7.07970       -0.58800
S          1.13770       -7.13600       -2.29340
C          0.29790       -8.63530       -2.50050
C          0.16060       -9.25500       -3.84680
C         -0.86540       -8.49880       -4.69400
C         -0.21970       -9.05140       -1.31140
C          0.06060       -8.17710       -0.22510
Cl        -0.55450       -8.45410        1.34980
Cl        -1.12690      -10.49430       -1.11270
C          2.03210       -6.20890        1.38190
S          2.48500       -7.76470        2.01310
C          0.36930       -4.16590       -1.26870
C          0.38600       -2.80520       -1.38540
S          1.24570       -2.04580       -0.05700
C         -0.20520       -2.00990       -2.40830
S         -0.77270       -0.41470       -2.06280
C         -1.35220       -0.17080       -3.67700
C         -1.12930       -1.31120       -4.45380
C         -0.44450       -2.35140       -3.74280
C         -0.06820       -3.53370       -4.41870
C         -0.44770       -3.72020       -5.71510
C         -1.23460       -2.76510       -6.38820
C         -1.56130       -1.59560       -5.76960
F         -2.34470       -0.70960       -6.41970
C         -1.94960        1.06830       -4.04370
S         -3.08860        1.83510       -2.99200
C         -3.35690        3.16240       -4.08100
C         -2.55780        3.01280       -5.22360
C         -1.73930        1.83670       -5.19060
C         -0.79870        1.58760       -6.21250
C         -0.73170        2.42500       -7.28570
C         -1.60620        3.52140       -7.39640
C         -2.48940        3.79950       -6.39500
F         -3.33120        4.84230       -6.55630
C         -4.20790        4.22970       -3.68710
S         -3.83580        5.87190       -4.07300
C         -5.17450        6.50450       -3.17700
C         -5.89030        5.46290       -2.57190
C         -5.34590        4.16810       -2.86730
C         -5.98310        3.00200       -2.39730
C         -7.08920        3.10110       -1.60490
C         -7.59150        4.35920       -1.23400
C         -7.00680        5.49790       -1.70650
F         -7.51260        6.67890       -1.29800
C         -5.36380        7.91700       -3.23320
C         -4.40180        8.81110       -3.62680
C         -4.85090       10.14860       -3.68740
C         -4.12180       11.29940       -4.03590
C         -2.70800       11.22770       -4.36690
S         -1.55890       10.52750       -3.26420
C         -0.22730       10.85010       -4.32130
C          1.17080       10.52620       -3.92510
C          1.78580       11.67010       -3.11500
C         -0.66350       11.46680       -5.45520
Cl         0.36780       11.94060       -6.74210
C         -2.06810       11.67910       -5.48720
Cl        -2.86340       12.35740       -6.84460
C         -4.81070       12.50570       -4.03650
C         -6.18370       12.60970       -3.70480
C         -6.90390       11.46430       -3.33410
C         -8.29550       11.54440       -2.91930
S         -9.52440       10.56160       -3.65550
C        -10.76430       11.21680       -2.64230
C        -12.18720       10.80810       -2.79970
C        -12.87960       11.63990       -3.88210
C        -10.24110       12.14410       -1.79140
C         -8.84100       12.32910       -1.94170
Cl        -7.93320       13.37840       -0.93080
Cl       -11.16550       13.00950       -0.63290
C         -6.22300       10.25410       -3.35490
S         -6.89680        8.71080       -2.93370
C         -6.64810       13.95340       -3.80750
C         -5.67290       14.81900       -4.15070
S         -4.13320       14.06970       -4.39130
H          7.61290      -12.69580        9.57350
H          7.78680      -10.10420        9.39790
H          7.06250       -4.25310       10.34300
H          8.81760       -4.22750       10.08910
H          6.71410       -3.35980        8.04230
H          8.46180       -3.31610        7.79170
H          7.71800       -2.26970        9.00520
H          2.90100      -13.85010        1.52180
H          1.89650      -14.94120        2.49640
H          3.91110      -16.30160        3.04700
H          4.91560      -15.21580        2.08130
H          3.67460      -16.20180        1.29930
H          3.31220       -9.78120        3.81650
H          3.78990       -5.02380        3.99900
H          5.30840        0.49700        4.77500
H          6.42680       -0.50000        3.82620
H          6.22340       -2.33270        5.50210
H          5.12040       -1.33790        6.45990
H          6.80360       -0.84340        6.25550
H          1.12740       -9.24250       -4.35420
H         -0.15520      -10.29180       -3.72200
H         -0.95640       -8.96230       -5.67250
H         -1.83870       -8.51340       -4.21000
H         -0.55790       -7.46350       -4.82340
H         -0.17840       -4.80230       -1.93680
H          0.53020       -4.27080       -3.90900
H         -0.16260       -4.61830       -6.24050
H         -1.58300       -2.94920       -7.39160
H         -0.14150        0.73650       -6.12860
H         -0.01750        2.24650       -8.07400
H         -1.58920        4.15110       -8.27140
H         -5.59930        2.03450       -2.67650
H         -7.58390        2.21260       -1.24550
H         -8.44180        4.44120       -0.57620
H         -3.39610        8.51210       -3.86180
H          1.76130       10.35950       -4.82810
H          1.17660        9.61290       -3.32780
H          1.79590       12.58430       -3.70320
H          2.80670       11.42370       -2.83560
H          1.20790       11.84500       -2.21070
H        -12.69990       10.94980       -1.84640
H        -12.23170        9.75150       -3.06860
H        -13.91610       11.33050       -3.98520
H        -12.37780       11.50730       -4.83760
H        -12.85530       12.69460       -3.61950
H         -7.66900       14.24170       -3.63860
H         -5.75270       15.87930       -4.29090
