
  xtb     03012215453D
 energy: -392.270111633467 gnorm: 0.000219609418 xtb: 6.4.1 (unknown)
196219  0     0  0            999 V2000
   17.6921   -3.2917    3.1314 C   0  0  0  0  0  0  0  0  0  0  0  0
   17.3085   -2.2474    2.3694 C   0  0  0  0  0  0  0  0  0  0  0  0
   15.9149   -2.2641    2.0699 C   0  0  0  0  0  0  0  0  0  0  0  0
   15.1905   -1.3729    1.2640 C   0  0  0  0  0  0  0  0  0  0  0  0
   15.8208   -0.2112    0.6558 C   0  0  0  0  0  0  0  0  0  0  0  0
   16.6532    0.9740    1.6181 S   0  0  0  0  0  0  0  0  0  0  0  0
   17.0372    1.9423    0.2360 C   0  0  0  0  0  0  0  0  0  0  0  0
   17.7598    3.2366    0.3742 C   0  0  0  0  0  0  0  0  0  0  0  0
   16.7832    4.3806    0.6580 C   0  0  0  0  0  0  0  0  0  0  0  0
   16.5381    1.3699   -0.8954 C   0  0  0  0  0  0  0  0  0  0  0  0
   16.7226    2.0365   -2.4656 Cl  0  0  0  0  0  0  0  0  0  0  0  0
   15.8502    0.1484   -0.6625 C   0  0  0  0  0  0  0  0  0  0  0  0
   15.2045   -0.8008   -1.9349 Cl  0  0  0  0  0  0  0  0  0  0  0  0
   13.8431   -1.6501    1.0692 C   0  0  0  0  0  0  0  0  0  0  0  0
   13.1990   -2.7721    1.6467 C   0  0  0  0  0  0  0  0  0  0  0  0
   13.9153   -3.6464    2.4813 C   0  0  0  0  0  0  0  0  0  0  0  0
   13.2639   -4.7638    3.1451 C   0  0  0  0  0  0  0  0  0  0  0  0
   12.3124   -5.9293    2.2703 S   0  0  0  0  0  0  0  0  0  0  0  0
   11.9399   -6.8270    3.7050 C   0  0  0  0  0  0  0  0  0  0  0  0
   11.1013   -8.0559    3.6519 C   0  0  0  0  0  0  0  0  0  0  0  0
   11.7811   -9.1651    2.8488 C   0  0  0  0  0  0  0  0  0  0  0  0
   12.5289   -6.2465    4.7871 C   0  0  0  0  0  0  0  0  0  0  0  0
   13.2746   -5.0768    4.4762 C   0  0  0  0  0  0  0  0  0  0  0  0
   14.0169   -4.1220    5.6898 Cl  0  0  0  0  0  0  0  0  0  0  0  0
   12.3903   -6.8393    6.3917 Cl  0  0  0  0  0  0  0  0  0  0  0  0
   15.2680   -3.3771    2.6592 C   0  0  0  0  0  0  0  0  0  0  0  0
   16.3981   -4.3594    3.5462 S   0  0  0  0  0  0  0  0  0  0  0  0
   11.8244   -2.8178    1.3105 C   0  0  0  0  0  0  0  0  0  0  0  0
   11.4223   -1.7809    0.5213 C   0  0  0  0  0  0  0  0  0  0  0  0
   12.7245   -0.6743    0.1604 S   0  0  0  0  0  0  0  0  0  0  0  0
   10.0976   -1.5881    0.0168 C   0  0  0  0  0  0  0  0  0  0  0  0
    9.1645   -2.5682   -0.1514 C   0  0  0  0  0  0  0  0  0  0  0  0
    7.9100   -2.0858   -0.5932 C   0  0  0  0  0  0  0  0  0  0  0  0
    6.7294   -2.8187   -0.8112 C   0  0  0  0  0  0  0  0  0  0  0  0
    6.6962   -4.2628   -0.6522 C   0  0  0  0  0  0  0  0  0  0  0  0
    7.3109   -5.0380    0.7800 S   0  0  0  0  0  0  0  0  0  0  0  0
    6.9299   -6.6184    0.1903 C   0  0  0  0  0  0  0  0  0  0  0  0
    7.3050   -7.8399    0.9544 C   0  0  0  0  0  0  0  0  0  0  0  0
    8.6972   -8.3252    0.5404 C   0  0  0  0  0  0  0  0  0  0  0  0
    6.3606   -6.5357   -1.0448 C   0  0  0  0  0  0  0  0  0  0  0  0
    5.8553   -7.8993   -1.9547 Cl  0  0  0  0  0  0  0  0  0  0  0  0
    6.2210   -5.2050   -1.5234 C   0  0  0  0  0  0  0  0  0  0  0  0
    5.6094   -4.8602   -3.0861 Cl  0  0  0  0  0  0  0  0  0  0  0  0
    5.5973   -2.0928   -1.1602 C   0  0  0  0  0  0  0  0  0  0  0  0
    5.6086   -0.6860   -1.3364 C   0  0  0  0  0  0  0  0  0  0  0  0
    6.8049    0.0373   -1.1804 C   0  0  0  0  0  0  0  0  0  0  0  0
    6.8474    1.4772   -1.3734 C   0  0  0  0  0  0  0  0  0  0  0  0
    5.7301    2.5324   -0.5571 S   0  0  0  0  0  0  0  0  0  0  0  0
    6.4149    3.9504   -1.2764 C   0  0  0  0  0  0  0  0  0  0  0  0
    5.8337    5.2952   -1.0132 C   0  0  0  0  0  0  0  0  0  0  0  0
    4.4621    5.4376   -1.6757 C   0  0  0  0  0  0  0  0  0  0  0  0
    7.4457    3.6093   -2.0991 C   0  0  0  0  0  0  0  0  0  0  0  0
    7.6992    2.2109   -2.1516 C   0  0  0  0  0  0  0  0  0  0  0  0
    8.9003    1.5370   -3.1708 Cl  0  0  0  0  0  0  0  0  0  0  0  0
    8.3704    4.7397   -2.9997 Cl  0  0  0  0  0  0  0  0  0  0  0  0
    7.9288   -0.6830   -0.7958 C   0  0  0  0  0  0  0  0  0  0  0  0
    9.4884   -0.0097   -0.4169 S   0  0  0  0  0  0  0  0  0  0  0  0
    4.3213   -0.1837   -1.6426 C   0  0  0  0  0  0  0  0  0  0  0  0
    3.3515   -1.1435   -1.6576 C   0  0  0  0  0  0  0  0  0  0  0  0
    3.9937   -2.7388   -1.3449 S   0  0  0  0  0  0  0  0  0  0  0  0
    1.9497   -0.9453   -1.8438 C   0  0  0  0  0  0  0  0  0  0  0  0
    1.2781    0.2421   -1.7903 C   0  0  0  0  0  0  0  0  0  0  0  0
   -0.1216    0.1059   -1.9479 C   0  0  0  0  0  0  0  0  0  0  0  0
   -1.1054    1.1105   -1.8777 C   0  0  0  0  0  0  0  0  0  0  0  0
   -0.7443    2.5146   -1.8059 C   0  0  0  0  0  0  0  0  0  0  0  0
   -1.4762    3.5901   -0.6516 S   0  0  0  0  0  0  0  0  0  0  0  0
   -0.5781    4.9507   -1.2287 C   0  0  0  0  0  0  0  0  0  0  0  0
   -0.7878    6.3130   -0.6661 C   0  0  0  0  0  0  0  0  0  0  0  0
   -1.8725    7.0585   -1.4477 C   0  0  0  0  0  0  0  0  0  0  0  0
    0.2293    4.5815   -2.2631 C   0  0  0  0  0  0  0  0  0  0  0  0
    1.2554    5.6674   -3.1071 Cl  0  0  0  0  0  0  0  0  0  0  0  0
    0.1433    3.2023   -2.5901 C   0  0  0  0  0  0  0  0  0  0  0  0
    1.0104    2.5215   -3.9069 Cl  0  0  0  0  0  0  0  0  0  0  0  0
   -2.4292    0.6907   -1.8858 C   0  0  0  0  0  0  0  0  0  0  0  0
   -2.8118   -0.6648   -2.0455 C   0  0  0  0  0  0  0  0  0  0  0  0
   -1.8280   -1.6608   -2.1670 C   0  0  0  0  0  0  0  0  0  0  0  0
   -2.1737   -3.0649   -2.3114 C   0  0  0  0  0  0  0  0  0  0  0  0
   -1.5077   -4.0179   -3.6039 S   0  0  0  0  0  0  0  0  0  0  0  0
   -2.3355   -5.4441   -3.0833 C   0  0  0  0  0  0  0  0  0  0  0  0
   -2.1388   -6.7443   -3.7808 C   0  0  0  0  0  0  0  0  0  0  0  0
   -0.8806   -7.4478   -3.2655 C   0  0  0  0  0  0  0  0  0  0  0  0
   -3.0707   -5.1843   -1.9652 C   0  0  0  0  0  0  0  0  0  0  0  0
   -2.9855   -3.8358   -1.5261 C   0  0  0  0  0  0  0  0  0  0  0  0
   -3.7613   -3.2823   -0.0977 Cl  0  0  0  0  0  0  0  0  0  0  0  0
   -4.0222   -6.3577   -1.1509 Cl  0  0  0  0  0  0  0  0  0  0  0  0
   -0.5038   -1.2481   -2.1077 C   0  0  0  0  0  0  0  0  0  0  0  0
    0.8795   -2.3032   -2.1059 S   0  0  0  0  0  0  0  0  0  0  0  0
   -4.2196   -0.8204   -2.0507 C   0  0  0  0  0  0  0  0  0  0  0  0
   -4.8959    0.3459   -1.8519 C   0  0  0  0  0  0  0  0  0  0  0  0
   -3.8198    1.7243   -1.7225 S   0  0  0  0  0  0  0  0  0  0  0  0
   -6.2956    0.5262   -1.6599 C   0  0  0  0  0  0  0  0  0  0  0  0
   -6.9348    1.6873   -1.3383 C   0  0  0  0  0  0  0  0  0  0  0  0
   -8.3180    1.5227   -1.0932 C   0  0  0  0  0  0  0  0  0  0  0  0
   -9.2484    2.4967   -0.6844 C   0  0  0  0  0  0  0  0  0  0  0  0
   -8.8347    3.8674   -0.4332 C   0  0  0  0  0  0  0  0  0  0  0  0
   -7.5044    4.2110    0.6347 S   0  0  0  0  0  0  0  0  0  0  0  0
   -7.6639    5.9204    0.4154 C   0  0  0  0  0  0  0  0  0  0  0  0
   -6.7116    6.8638    1.0631 C   0  0  0  0  0  0  0  0  0  0  0  0
   -5.3386    6.8015    0.3900 C   0  0  0  0  0  0  0  0  0  0  0  0
   -8.6902    6.1923   -0.4382 C   0  0  0  0  0  0  0  0  0  0  0  0
   -9.1532    7.7763   -0.9099 Cl  0  0  0  0  0  0  0  0  0  0  0  0
   -9.3605    5.0330   -0.9160 C   0  0  0  0  0  0  0  0  0  0  0  0
  -10.6360    5.1203   -2.0573 Cl  0  0  0  0  0  0  0  0  0  0  0  0
  -10.5553    2.0740   -0.4938 C   0  0  0  0  0  0  0  0  0  0  0  0
  -10.9718    0.7336   -0.6931 C   0  0  0  0  0  0  0  0  0  0  0  0
  -10.0346   -0.2444   -1.0727 C   0  0  0  0  0  0  0  0  0  0  0  0
  -10.4161   -1.6410   -1.1943 C   0  0  0  0  0  0  0  0  0  0  0  0
  -10.0654   -2.5609   -2.6268 S   0  0  0  0  0  0  0  0  0  0  0  0
  -10.7910   -3.9921   -1.9797 C   0  0  0  0  0  0  0  0  0  0  0  0
  -10.8868   -5.2414   -2.7836 C   0  0  0  0  0  0  0  0  0  0  0  0
  -12.1383   -5.2300   -3.6649 C   0  0  0  0  0  0  0  0  0  0  0  0
  -11.2744   -3.7544   -0.7275 C   0  0  0  0  0  0  0  0  0  0  0  0
  -11.0592   -2.4251   -0.2763 C   0  0  0  0  0  0  0  0  0  0  0  0
  -11.4957   -1.9064    1.3010 Cl  0  0  0  0  0  0  0  0  0  0  0  0
  -12.0621   -4.9367    0.2353 Cl  0  0  0  0  0  0  0  0  0  0  0  0
   -8.7298    0.1805   -1.2793 C   0  0  0  0  0  0  0  0  0  0  0  0
   -7.3883   -0.8421   -1.7126 S   0  0  0  0  0  0  0  0  0  0  0  0
  -12.3508    0.5678   -0.4423 C   0  0  0  0  0  0  0  0  0  0  0  0
  -12.9828    1.7050   -0.0118 C   0  0  0  0  0  0  0  0  0  0  0  0
  -11.8731    3.0614    0.0652 S   0  0  0  0  0  0  0  0  0  0  0  0
  -14.3483    1.7987    0.3659 C   0  0  0  0  0  0  0  0  0  0  0  0
  -15.2668    0.3303    0.4755 S   0  0  0  0  0  0  0  0  0  0  0  0
  -16.6973    1.1469    1.0003 C   0  0  0  0  0  0  0  0  0  0  0  0
  -16.4842    2.5264    1.0374 C   0  0  0  0  0  0  0  0  0  0  0  0
  -15.1408    2.9026    0.7003 C   0  0  0  0  0  0  0  0  0  0  0  0
  -14.7794    4.2671    0.7013 C   0  0  0  0  0  0  0  0  0  0  0  0
  -15.7144    5.2188    0.9849 C   0  0  0  0  0  0  0  0  0  0  0  0
  -17.0533    4.8713    1.2475 C   0  0  0  0  0  0  0  0  0  0  0  0
  -17.4224    3.5598    1.2615 C   0  0  0  0  0  0  0  0  0  0  0  0
  -18.7222    3.2483    1.4475 F   0  0  0  0  0  0  0  0  0  0  0  0
  -17.8603    0.4034    1.3584 C   0  0  0  0  0  0  0  0  0  0  0  0
  -18.3990   -0.9242    0.3807 S   0  0  0  0  0  0  0  0  0  0  0  0
  -19.7180   -1.2502    1.4053 C   0  0  0  0  0  0  0  0  0  0  0  0
  -19.7498   -0.3976    2.4865 C   0  0  0  0  0  0  0  0  0  0  0  0
  -18.6745    0.5529    2.4808 C   0  0  0  0  0  0  0  0  0  0  0  0
  -18.5137    1.4312    3.5754 C   0  0  0  0  0  0  0  0  0  0  0  0
  -19.4149    1.4040    4.5971 C   0  0  0  0  0  0  0  0  0  0  0  0
  -20.5105    0.5118    4.5941 C   0  0  0  0  0  0  0  0  0  0  0  0
  -20.6631   -0.3658    3.5676 C   0  0  0  0  0  0  0  0  0  0  0  0
  -21.6881   -1.2445    3.5648 F   0  0  0  0  0  0  0  0  0  0  0  0
   18.6765   -3.5173    3.4922 H   0  0  0  0  0  0  0  0  0  0  0  0
   17.9811   -1.4880    2.0156 H   0  0  0  0  0  0  0  0  0  0  0  0
   18.4818    3.1642    1.1892 H   0  0  0  0  0  0  0  0  0  0  0  0
   18.2971    3.4376   -0.5546 H   0  0  0  0  0  0  0  0  0  0  0  0
   16.2423    4.1947    1.5828 H   0  0  0  0  0  0  0  0  0  0  0  0
   16.0648    4.4720   -0.1525 H   0  0  0  0  0  0  0  0  0  0  0  0
   17.3245    5.3182    0.7518 H   0  0  0  0  0  0  0  0  0  0  0  0
   10.9237   -8.3922    4.6746 H   0  0  0  0  0  0  0  0  0  0  0  0
   10.1381   -7.8174    3.1950 H   0  0  0  0  0  0  0  0  0  0  0  0
   11.1571  -10.0547    2.8370 H   0  0  0  0  0  0  0  0  0  0  0  0
   12.7394   -9.4202    3.2939 H   0  0  0  0  0  0  0  0  0  0  0  0
   11.9492   -8.8412    1.8244 H   0  0  0  0  0  0  0  0  0  0  0  0
   11.1504   -3.5767    1.6606 H   0  0  0  0  0  0  0  0  0  0  0  0
    9.3772   -3.6049    0.0272 H   0  0  0  0  0  0  0  0  0  0  0  0
    6.5718   -8.6228    0.7520 H   0  0  0  0  0  0  0  0  0  0  0  0
    7.2943   -7.6170    2.0225 H   0  0  0  0  0  0  0  0  0  0  0  0
    8.7073   -8.5732   -0.5176 H   0  0  0  0  0  0  0  0  0  0  0  0
    8.9686   -9.2116    1.1070 H   0  0  0  0  0  0  0  0  0  0  0  0
    9.4393   -7.5502    0.7203 H   0  0  0  0  0  0  0  0  0  0  0  0
    6.5162    6.0507   -1.4051 H   0  0  0  0  0  0  0  0  0  0  0  0
    5.7303    5.4438    0.0640 H   0  0  0  0  0  0  0  0  0  0  0  0
    4.5452    5.3020   -2.7512 H   0  0  0  0  0  0  0  0  0  0  0  0
    4.0523    6.4250   -1.4813 H   0  0  0  0  0  0  0  0  0  0  0  0
    3.7742    4.6917   -1.2837 H   0  0  0  0  0  0  0  0  0  0  0  0
    4.1200    0.8507   -1.8461 H   0  0  0  0  0  0  0  0  0  0  0  0
    1.7634    1.1788   -1.5914 H   0  0  0  0  0  0  0  0  0  0  0  0
    0.1504    6.8681   -0.7246 H   0  0  0  0  0  0  0  0  0  0  0  0
   -1.0837    6.2302    0.3805 H   0  0  0  0  0  0  0  0  0  0  0  0
   -2.8096    6.5094   -1.4072 H   0  0  0  0  0  0  0  0  0  0  0  0
   -2.0269    8.0467   -1.0233 H   0  0  0  0  0  0  0  0  0  0  0  0
   -1.5774    7.1685   -2.4879 H   0  0  0  0  0  0  0  0  0  0  0  0
   -3.0115   -7.3752   -3.6032 H   0  0  0  0  0  0  0  0  0  0  0  0
   -2.0435   -6.5701   -4.8539 H   0  0  0  0  0  0  0  0  0  0  0  0
   -0.9691   -7.6449   -2.2001 H   0  0  0  0  0  0  0  0  0  0  0  0
   -0.0054   -6.8241   -3.4317 H   0  0  0  0  0  0  0  0  0  0  0  0
   -0.7414   -8.3921   -3.7847 H   0  0  0  0  0  0  0  0  0  0  0  0
   -4.7200   -1.7621   -2.1820 H   0  0  0  0  0  0  0  0  0  0  0  0
   -6.4171    2.6265   -1.2678 H   0  0  0  0  0  0  0  0  0  0  0  0
   -7.1166    7.8741    0.9874 H   0  0  0  0  0  0  0  0  0  0  0  0
   -6.6070    6.6079    2.1195 H   0  0  0  0  0  0  0  0  0  0  0  0
   -4.6546    7.4946    0.8722 H   0  0  0  0  0  0  0  0  0  0  0  0
   -5.4233    7.0693   -0.6604 H   0  0  0  0  0  0  0  0  0  0  0  0
   -4.9284    5.7966    0.4632 H   0  0  0  0  0  0  0  0  0  0  0  0
   -9.9998   -5.3361   -3.4120 H   0  0  0  0  0  0  0  0  0  0  0  0
  -10.9276   -6.0936   -2.1027 H   0  0  0  0  0  0  0  0  0  0  0  0
  -13.0312   -5.1507   -3.0501 H   0  0  0  0  0  0  0  0  0  0  0  0
  -12.1947   -6.1473   -4.2446 H   0  0  0  0  0  0  0  0  0  0  0  0
  -12.1101   -4.3851   -4.3488 H   0  0  0  0  0  0  0  0  0  0  0  0
  -12.8722   -0.3614   -0.5840 H   0  0  0  0  0  0  0  0  0  0  0  0
  -13.7689    4.5528    0.4623 H   0  0  0  0  0  0  0  0  0  0  0  0
  -15.4410    6.2622    0.9835 H   0  0  0  0  0  0  0  0  0  0  0  0
  -17.7963    5.6338    1.4174 H   0  0  0  0  0  0  0  0  0  0  0  0
  -20.4025   -2.0415    1.1743 H   0  0  0  0  0  0  0  0  0  0  0  0
  -17.6730    2.1068    3.5968 H   0  0  0  0  0  0  0  0  0  0  0  0
  -19.2998    2.0711    5.4372 H   0  0  0  0  0  0  0  0  0  0  0  0
  -21.2171    0.5147    5.4086 H   0  0  0  0  0  0  0  0  0  0  0  0
  1  2  2  0  0  0  0
  2  3  1  0  0  0  0
  3  4  2  0  0  0  0
  4  5  1  0  0  0  0
  5  6  1  0  0  0  0
  6  7  1  0  0  0  0
  7  8  1  0  0  0  0
  8  9  1  0  0  0  0
  7 10  2  0  0  0  0
 10 11  1  0  0  0  0
 10 12  1  0  0  0  0
 12 13  1  0  0  0  0
  4 14  1  0  0  0  0
 14 15  2  0  0  0  0
 15 16  1  0  0  0  0
 16 17  1  0  0  0  0
 17 18  1  0  0  0  0
 18 19  1  0  0  0  0
 19 20  1  0  0  0  0
 20 21  1  0  0  0  0
 19 22  2  0  0  0  0
 22 23  1  0  0  0  0
 23 24  1  0  0  0  0
 22 25  1  0  0  0  0
 16 26  2  0  0  0  0
 26 27  1  0  0  0  0
 15 28  1  0  0  0  0
 28 29  2  0  0  0  0
 29 30  1  0  0  0  0
 29 31  1  0  0  0  0
 31 32  2  0  0  0  0
 32 33  1  0  0  0  0
 33 34  2  0  0  0  0
 34 35  1  0  0  0  0
 35 36  1  0  0  0  0
 36 37  1  0  0  0  0
 37 38  1  0  0  0  0
 38 39  1  0  0  0  0
 37 40  2  0  0  0  0
 40 41  1  0  0  0  0
 40 42  1  0  0  0  0
 42 43  1  0  0  0  0
 34 44  1  0  0  0  0
 44 45  2  0  0  0  0
 45 46  1  0  0  0  0
 46 47  1  0  0  0  0
 47 48  1  0  0  0  0
 48 49  1  0  0  0  0
 49 50  1  0  0  0  0
 50 51  1  0  0  0  0
 49 52  2  0  0  0  0
 52 53  1  0  0  0  0
 53 54  1  0  0  0  0
 52 55  1  0  0  0  0
 46 56  2  0  0  0  0
 56 57  1  0  0  0  0
 45 58  1  0  0  0  0
 58 59  2  0  0  0  0
 59 60  1  0  0  0  0
 59 61  1  0  0  0  0
 61 62  2  0  0  0  0
 62 63  1  0  0  0  0
 63 64  2  0  0  0  0
 64 65  1  0  0  0  0
 65 66  1  0  0  0  0
 66 67  1  0  0  0  0
 67 68  1  0  0  0  0
 68 69  1  0  0  0  0
 67 70  2  0  0  0  0
 70 71  1  0  0  0  0
 70 72  1  0  0  0  0
 72 73  1  0  0  0  0
 64 74  1  0  0  0  0
 74 75  2  0  0  0  0
 75 76  1  0  0  0  0
 76 77  1  0  0  0  0
 77 78  1  0  0  0  0
 78 79  1  0  0  0  0
 79 80  1  0  0  0  0
 80 81  1  0  0  0  0
 79 82  2  0  0  0  0
 82 83  1  0  0  0  0
 83 84  1  0  0  0  0
 82 85  1  0  0  0  0
 76 86  2  0  0  0  0
 86 87  1  0  0  0  0
 75 88  1  0  0  0  0
 88 89  2  0  0  0  0
 89 90  1  0  0  0  0
 89 91  1  0  0  0  0
 91 92  2  0  0  0  0
 92 93  1  0  0  0  0
 93 94  2  0  0  0  0
 94 95  1  0  0  0  0
 95 96  1  0  0  0  0
 96 97  1  0  0  0  0
 97 98  1  0  0  0  0
 98 99  1  0  0  0  0
 97100  2  0  0  0  0
100101  1  0  0  0  0
100102  1  0  0  0  0
102103  1  0  0  0  0
 94104  1  0  0  0  0
104105  2  0  0  0  0
105106  1  0  0  0  0
106107  1  0  0  0  0
107108  1  0  0  0  0
108109  1  0  0  0  0
109110  1  0  0  0  0
110111  1  0  0  0  0
109112  2  0  0  0  0
112113  1  0  0  0  0
113114  1  0  0  0  0
112115  1  0  0  0  0
106116  2  0  0  0  0
116117  1  0  0  0  0
105118  1  0  0  0  0
118119  2  0  0  0  0
119120  1  0  0  0  0
119121  1  0  0  0  0
121122  1  0  0  0  0
122123  1  0  0  0  0
123124  2  0  0  0  0
124125  1  0  0  0  0
125126  1  0  0  0  0
126127  2  0  0  0  0
127128  1  0  0  0  0
128129  2  0  0  0  0
129130  1  0  0  0  0
123131  1  0  0  0  0
131132  1  0  0  0  0
132133  1  0  0  0  0
133134  2  0  0  0  0
134135  1  0  0  0  0
135136  1  0  0  0  0
136137  2  0  0  0  0
137138  1  0  0  0  0
138139  2  0  0  0  0
139140  1  0  0  0  0
 27  1  1  0  0  0  0
 57 31  1  0  0  0  0
 87 61  1  0  0  0  0
117 91  1  0  0  0  0
125121  2  0  0  0  0
135131  2  0  0  0  0
 26  3  1  0  0  0  0
 56 33  1  0  0  0  0
 86 63  1  0  0  0  0
116 93  1  0  0  0  0
129124  1  0  0  0  0
139134  1  0  0  0  0
 12  5  2  0  0  0  0
 30 14  1  0  0  0  0
 42 35  2  0  0  0  0
 60 44  1  0  0  0  0
 72 65  2  0  0  0  0
 90 74  1  0  0  0  0
102 95  2  0  0  0  0
120104  1  0  0  0  0
 23 17  2  0  0  0  0
 53 47  2  0  0  0  0
 83 77  2  0  0  0  0
113107  2  0  0  0  0
  1141  1  0  0  0  0
  2142  1  0  0  0  0
  8143  1  0  0  0  0
  8144  1  0  0  0  0
  9145  1  0  0  0  0
  9146  1  0  0  0  0
  9147  1  0  0  0  0
 20148  1  0  0  0  0
 20149  1  0  0  0  0
 21150  1  0  0  0  0
 21151  1  0  0  0  0
 21152  1  0  0  0  0
 28153  1  0  0  0  0
 32154  1  0  0  0  0
 38155  1  0  0  0  0
 38156  1  0  0  0  0
 39157  1  0  0  0  0
 39158  1  0  0  0  0
 39159  1  0  0  0  0
 50160  1  0  0  0  0
 50161  1  0  0  0  0
 51162  1  0  0  0  0
 51163  1  0  0  0  0
 51164  1  0  0  0  0
 58165  1  0  0  0  0
 62166  1  0  0  0  0
 68167  1  0  0  0  0
 68168  1  0  0  0  0
 69169  1  0  0  0  0
 69170  1  0  0  0  0
 69171  1  0  0  0  0
 80172  1  0  0  0  0
 80173  1  0  0  0  0
 81174  1  0  0  0  0
 81175  1  0  0  0  0
 81176  1  0  0  0  0
 88177  1  0  0  0  0
 92178  1  0  0  0  0
 98179  1  0  0  0  0
 98180  1  0  0  0  0
 99181  1  0  0  0  0
 99182  1  0  0  0  0
 99183  1  0  0  0  0
110184  1  0  0  0  0
110185  1  0  0  0  0
111186  1  0  0  0  0
111187  1  0  0  0  0
111188  1  0  0  0  0
118189  1  0  0  0  0
126190  1  0  0  0  0
127191  1  0  0  0  0
128192  1  0  0  0  0
133193  1  0  0  0  0
136194  1  0  0  0  0
137195  1  0  0  0  0
138196  1  0  0  0  0
M  END
