
  xtb     03012216013D
 energy: -276.564526739919 gnorm: 0.000470470501 xtb: 6.4.1 (unknown)
138155  0     0  0            999 V2000
    3.5585   -1.8288   14.2656 C   0  0  0  0  0  0  0  0  0  0  0  0
    2.4531   -1.0658   13.2246 S   0  0  0  0  0  0  0  0  0  0  0  0
    3.0573   -1.8960   11.8216 C   0  0  0  0  0  0  0  0  0  0  0  0
    4.1131   -2.7375   12.1806 C   0  0  0  0  0  0  0  0  0  0  0  0
    4.3902   -2.6975   13.5948 C   0  0  0  0  0  0  0  0  0  0  0  0
    5.4213   -3.4859   14.1609 C   0  0  0  0  0  0  0  0  0  0  0  0
    6.1751   -4.2816   13.3565 C   0  0  0  0  0  0  0  0  0  0  0  0
    5.9497   -4.3121   11.9646 C   0  0  0  0  0  0  0  0  0  0  0  0
    4.9603   -3.5622   11.4028 C   0  0  0  0  0  0  0  0  0  0  0  0
    4.8220   -3.6042   10.0627 F   0  0  0  0  0  0  0  0  0  0  0  0
    2.3971   -1.6244   10.5846 C   0  0  0  0  0  0  0  0  0  0  0  0
    1.5946   -0.5369   10.3554 C   0  0  0  0  0  0  0  0  0  0  0  0
    1.0011   -0.5198    9.0757 C   0  0  0  0  0  0  0  0  0  0  0  0
    0.1014    0.4264    8.5468 C   0  0  0  0  0  0  0  0  0  0  0  0
   -0.3082    1.5930    9.3109 C   0  0  0  0  0  0  0  0  0  0  0  0
    0.8610    2.6863    9.9925 S   0  0  0  0  0  0  0  0  0  0  0  0
   -0.3647    3.7146   10.6519 C   0  0  0  0  0  0  0  0  0  0  0  0
   -0.0176    4.9667   11.3787 C   0  0  0  0  0  0  0  0  0  0  0  0
    0.1075    6.1441   10.4087 C   0  0  0  0  0  0  0  0  0  0  0  0
   -1.6011    3.2302   10.3468 C   0  0  0  0  0  0  0  0  0  0  0  0
   -3.0666    3.9787   10.8337 Cl  0  0  0  0  0  0  0  0  0  0  0  0
   -1.5740    2.0276    9.5909 C   0  0  0  0  0  0  0  0  0  0  0  0
   -3.0024    1.1817    9.1642 Cl  0  0  0  0  0  0  0  0  0  0  0  0
   -0.3717    0.1930    7.2648 C   0  0  0  0  0  0  0  0  0  0  0  0
    0.0032   -0.9382    6.4982 C   0  0  0  0  0  0  0  0  0  0  0  0
    0.8884   -1.8933    7.0323 C   0  0  0  0  0  0  0  0  0  0  0  0
    1.2574   -3.0692    6.2632 C   0  0  0  0  0  0  0  0  0  0  0  0
    0.0320   -4.0904    5.5649 S   0  0  0  0  0  0  0  0  0  0  0  0
    1.2028   -5.1514    4.8584 C   0  0  0  0  0  0  0  0  0  0  0  0
    0.7797   -6.2930    4.0016 C   0  0  0  0  0  0  0  0  0  0  0  0
    0.2857   -5.7999    2.6394 C   0  0  0  0  0  0  0  0  0  0  0  0
    2.4623   -4.7269    5.1567 C   0  0  0  0  0  0  0  0  0  0  0  0
    2.4993   -3.5517    5.9572 C   0  0  0  0  0  0  0  0  0  0  0  0
    3.9694   -2.7910    6.3979 Cl  0  0  0  0  0  0  0  0  0  0  0  0
    3.8898   -5.5153    4.6243 Cl  0  0  0  0  0  0  0  0  0  0  0  0
    1.3680   -1.6578    8.3137 C   0  0  0  0  0  0  0  0  0  0  0  0
    2.4326   -2.6991    9.2049 S   0  0  0  0  0  0  0  0  0  0  0  0
   -0.5645   -0.9112    5.2085 C   0  0  0  0  0  0  0  0  0  0  0  0
   -1.3599    0.1792    4.9636 C   0  0  0  0  0  0  0  0  0  0  0  0
   -1.4256    1.2419    6.3582 S   0  0  0  0  0  0  0  0  0  0  0  0
   -2.0438    0.4235    3.7465 C   0  0  0  0  0  0  0  0  0  0  0  0
   -1.8436   -0.7313    2.4676 S   0  0  0  0  0  0  0  0  0  0  0  0
   -2.8742    0.1354    1.3706 C   0  0  0  0  0  0  0  0  0  0  0  0
   -3.3879    1.2785    2.0049 C   0  0  0  0  0  0  0  0  0  0  0  0
   -2.9080    1.4501    3.3471 C   0  0  0  0  0  0  0  0  0  0  0  0
   -3.3324    2.5544    4.1144 C   0  0  0  0  0  0  0  0  0  0  0  0
   -4.2250    3.4451    3.5931 C   0  0  0  0  0  0  0  0  0  0  0  0
   -4.7532    3.2631    2.3040 C   0  0  0  0  0  0  0  0  0  0  0  0
   -4.3481    2.2043    1.5447 C   0  0  0  0  0  0  0  0  0  0  0  0
   -4.9288    2.0317    0.3361 F   0  0  0  0  0  0  0  0  0  0  0  0
   -2.9813   -0.3003    0.0268 C   0  0  0  0  0  0  0  0  0  0  0  0
   -3.0967    0.8355   -1.2730 S   0  0  0  0  0  0  0  0  0  0  0  0
   -3.0199   -0.3841   -2.5010 C   0  0  0  0  0  0  0  0  0  0  0  0
   -2.9367   -1.6563   -1.9080 C   0  0  0  0  0  0  0  0  0  0  0  0
   -2.8891   -1.6101   -0.4771 C   0  0  0  0  0  0  0  0  0  0  0  0
   -2.8312   -2.8032    0.2687 C   0  0  0  0  0  0  0  0  0  0  0  0
   -2.8133   -4.0096   -0.3718 C   0  0  0  0  0  0  0  0  0  0  0  0
   -2.8931   -4.0793   -1.7711 C   0  0  0  0  0  0  0  0  0  0  0  0
   -2.9727   -2.9322   -2.5080 C   0  0  0  0  0  0  0  0  0  0  0  0
   -3.1365   -3.0455   -3.8425 F   0  0  0  0  0  0  0  0  0  0  0  0
   -2.9314    0.0092   -3.8599 C   0  0  0  0  0  0  0  0  0  0  0  0
   -1.9806   -0.8850   -4.9955 S   0  0  0  0  0  0  0  0  0  0  0  0
   -2.1791    0.2863   -6.2447 C   0  0  0  0  0  0  0  0  0  0  0  0
   -3.0068    1.3305   -5.8177 C   0  0  0  0  0  0  0  0  0  0  0  0
   -3.4262    1.1852   -4.4544 C   0  0  0  0  0  0  0  0  0  0  0  0
   -4.3033    2.1276   -3.8822 C   0  0  0  0  0  0  0  0  0  0  0  0
   -4.7452    3.1856   -4.6242 C   0  0  0  0  0  0  0  0  0  0  0  0
   -4.3567    3.3396   -5.9654 C   0  0  0  0  0  0  0  0  0  0  0  0
   -3.5238    2.4262   -6.5428 C   0  0  0  0  0  0  0  0  0  0  0  0
   -3.2255    2.5707   -7.8513 F   0  0  0  0  0  0  0  0  0  0  0  0
   -1.4910    0.0817   -7.4778 C   0  0  0  0  0  0  0  0  0  0  0  0
   -0.9307    0.9972   -8.3196 C   0  0  0  0  0  0  0  0  0  0  0  0
   -0.2608    0.4150   -9.4232 C   0  0  0  0  0  0  0  0  0  0  0  0
    0.4493    1.0663  -10.4448 C   0  0  0  0  0  0  0  0  0  0  0  0
    0.6400    2.5068  -10.4277 C   0  0  0  0  0  0  0  0  0  0  0  0
    0.2189    3.5010  -11.7881 S   0  0  0  0  0  0  0  0  0  0  0  0
    0.7396    4.9458  -10.9923 C   0  0  0  0  0  0  0  0  0  0  0  0
    0.6986    6.2638  -11.6832 C   0  0  0  0  0  0  0  0  0  0  0  0
    1.9411    6.4571  -12.5559 C   0  0  0  0  0  0  0  0  0  0  0  0
    1.2204    4.6568   -9.7501 C   0  0  0  0  0  0  0  0  0  0  0  0
    1.8421    5.8331   -8.6661 Cl  0  0  0  0  0  0  0  0  0  0  0  0
    1.1596    3.2762   -9.4237 C   0  0  0  0  0  0  0  0  0  0  0  0
    1.7642    2.6493   -7.9442 Cl  0  0  0  0  0  0  0  0  0  0  0  0
    0.9833    0.2694  -11.4500 C   0  0  0  0  0  0  0  0  0  0  0  0
    0.8715   -1.1402  -11.4569 C   0  0  0  0  0  0  0  0  0  0  0  0
    0.1871   -1.7942  -10.4206 C   0  0  0  0  0  0  0  0  0  0  0  0
    0.0626   -3.2436  -10.3845 C   0  0  0  0  0  0  0  0  0  0  0  0
    1.4631   -4.2731  -10.4069 S   0  0  0  0  0  0  0  0  0  0  0  0
    0.5057   -5.7112  -10.3024 C   0  0  0  0  0  0  0  0  0  0  0  0
    1.1335   -7.0609  -10.3264 C   0  0  0  0  0  0  0  0  0  0  0  0
    1.3871   -7.5204  -11.7641 C   0  0  0  0  0  0  0  0  0  0  0  0
   -0.8190   -5.3947  -10.2668 C   0  0  0  0  0  0  0  0  0  0  0  0
   -1.0747   -3.9972  -10.3054 C   0  0  0  0  0  0  0  0  0  0  0  0
   -2.6618   -3.3517  -10.3305 Cl  0  0  0  0  0  0  0  0  0  0  0  0
   -2.0775   -6.5574  -10.1788 Cl  0  0  0  0  0  0  0  0  0  0  0  0
   -0.3611   -0.9985   -9.4236 C   0  0  0  0  0  0  0  0  0  0  0  0
   -1.2081   -1.5674   -8.0174 S   0  0  0  0  0  0  0  0  0  0  0  0
    1.5101   -1.7121  -12.5960 C   0  0  0  0  0  0  0  0  0  0  0  0
    2.0871   -0.7881  -13.3907 C   0  0  0  0  0  0  0  0  0  0  0  0
    1.8956    0.8344  -12.8219 S   0  0  0  0  0  0  0  0  0  0  0  0
    3.5520   -1.6075   15.3138 H   0  0  0  0  0  0  0  0  0  0  0  0
    5.5900   -3.4336   15.2250 H   0  0  0  0  0  0  0  0  0  0  0  0
    6.9649   -4.8906   13.7676 H   0  0  0  0  0  0  0  0  0  0  0  0
    6.5676   -4.9229   11.3259 H   0  0  0  0  0  0  0  0  0  0  0  0
    1.4427    0.2331   11.0901 H   0  0  0  0  0  0  0  0  0  0  0  0
   -0.8019    5.1777   12.1083 H   0  0  0  0  0  0  0  0  0  0  0  0
    0.9266    4.8286   11.9081 H   0  0  0  0  0  0  0  0  0  0  0  0
   -0.8315    6.3001    9.8838 H   0  0  0  0  0  0  0  0  0  0  0  0
    0.8871    5.9484    9.6763 H   0  0  0  0  0  0  0  0  0  0  0  0
    0.3582    7.0509   10.9524 H   0  0  0  0  0  0  0  0  0  0  0  0
    1.6315   -6.9612    3.8667 H   0  0  0  0  0  0  0  0  0  0  0  0
   -0.0218   -6.8442    4.4980 H   0  0  0  0  0  0  0  0  0  0  0  0
    1.0762   -5.2611    2.1230 H   0  0  0  0  0  0  0  0  0  0  0  0
   -0.0192   -6.6428    2.0252 H   0  0  0  0  0  0  0  0  0  0  0  0
   -0.5636   -5.1321    2.7654 H   0  0  0  0  0  0  0  0  0  0  0  0
   -0.3872   -1.6673    4.4655 H   0  0  0  0  0  0  0  0  0  0  0  0
   -2.9568    2.6819    5.1156 H   0  0  0  0  0  0  0  0  0  0  0  0
   -4.5539    4.2897    4.1775 H   0  0  0  0  0  0  0  0  0  0  0  0
   -5.4920    3.9420    1.9096 H   0  0  0  0  0  0  0  0  0  0  0  0
   -2.8227   -2.7601    1.3454 H   0  0  0  0  0  0  0  0  0  0  0  0
   -2.7661   -4.9254    0.1960 H   0  0  0  0  0  0  0  0  0  0  0  0
   -2.9224   -5.0313   -2.2760 H   0  0  0  0  0  0  0  0  0  0  0  0
   -4.6442    2.0003   -2.8677 H   0  0  0  0  0  0  0  0  0  0  0  0
   -5.4194    3.9070   -4.1904 H   0  0  0  0  0  0  0  0  0  0  0  0
   -4.7301    4.1605   -6.5564 H   0  0  0  0  0  0  0  0  0  0  0  0
   -0.9760    2.0562   -8.1570 H   0  0  0  0  0  0  0  0  0  0  0  0
   -0.1952    6.3190  -12.3066 H   0  0  0  0  0  0  0  0  0  0  0  0
    0.6520    7.0536  -10.9313 H   0  0  0  0  0  0  0  0  0  0  0  0
    1.9005    7.4210  -13.0558 H   0  0  0  0  0  0  0  0  0  0  0  0
    2.8396    6.4182  -11.9453 H   0  0  0  0  0  0  0  0  0  0  0  0
    1.9981    5.6738  -13.3080 H   0  0  0  0  0  0  0  0  0  0  0  0
    2.0792   -7.0309   -9.7826 H   0  0  0  0  0  0  0  0  0  0  0  0
    0.4648   -7.7660   -9.8295 H   0  0  0  0  0  0  0  0  0  0  0  0
    2.0577   -6.8287  -12.2686 H   0  0  0  0  0  0  0  0  0  0  0  0
    0.4513   -7.5635  -12.3157 H   0  0  0  0  0  0  0  0  0  0  0  0
    1.8387   -8.5087  -11.7662 H   0  0  0  0  0  0  0  0  0  0  0  0
    1.5258   -2.7671  -12.7986 H   0  0  0  0  0  0  0  0  0  0  0  0
    2.6273   -0.9494  -14.3029 H   0  0  0  0  0  0  0  0  0  0  0  0
  1  2  1  0  0  0  0
  2  3  1  0  0  0  0
  3  4  2  0  0  0  0
  4  5  1  0  0  0  0
  5  6  1  0  0  0  0
  6  7  2  0  0  0  0
  7  8  1  0  0  0  0
  8  9  2  0  0  0  0
  9 10  1  0  0  0  0
  3 11  1  0  0  0  0
 11 12  2  0  0  0  0
 12 13  1  0  0  0  0
 13 14  2  0  0  0  0
 14 15  1  0  0  0  0
 15 16  1  0  0  0  0
 16 17  1  0  0  0  0
 17 18  1  0  0  0  0
 18 19  1  0  0  0  0
 17 20  2  0  0  0  0
 20 21  1  0  0  0  0
 20 22  1  0  0  0  0
 22 23  1  0  0  0  0
 14 24  1  0  0  0  0
 24 25  2  0  0  0  0
 25 26  1  0  0  0  0
 26 27  1  0  0  0  0
 27 28  1  0  0  0  0
 28 29  1  0  0  0  0
 29 30  1  0  0  0  0
 30 31  1  0  0  0  0
 29 32  2  0  0  0  0
 32 33  1  0  0  0  0
 33 34  1  0  0  0  0
 32 35  1  0  0  0  0
 26 36  2  0  0  0  0
 36 37  1  0  0  0  0
 25 38  1  0  0  0  0
 38 39  2  0  0  0  0
 39 40  1  0  0  0  0
 39 41  1  0  0  0  0
 41 42  1  0  0  0  0
 42 43  1  0  0  0  0
 43 44  2  0  0  0  0
 44 45  1  0  0  0  0
 45 46  1  0  0  0  0
 46 47  2  0  0  0  0
 47 48  1  0  0  0  0
 48 49  2  0  0  0  0
 49 50  1  0  0  0  0
 43 51  1  0  0  0  0
 51 52  1  0  0  0  0
 52 53  1  0  0  0  0
 53 54  2  0  0  0  0
 54 55  1  0  0  0  0
 55 56  1  0  0  0  0
 56 57  2  0  0  0  0
 57 58  1  0  0  0  0
 58 59  2  0  0  0  0
 59 60  1  0  0  0  0
 53 61  1  0  0  0  0
 61 62  1  0  0  0  0
 62 63  1  0  0  0  0
 63 64  2  0  0  0  0
 64 65  1  0  0  0  0
 65 66  1  0  0  0  0
 66 67  2  0  0  0  0
 67 68  1  0  0  0  0
 68 69  2  0  0  0  0
 69 70  1  0  0  0  0
 63 71  1  0  0  0  0
 71 72  2  0  0  0  0
 72 73  1  0  0  0  0
 73 74  2  0  0  0  0
 74 75  1  0  0  0  0
 75 76  1  0  0  0  0
 76 77  1  0  0  0  0
 77 78  1  0  0  0  0
 78 79  1  0  0  0  0
 77 80  2  0  0  0  0
 80 81  1  0  0  0  0
 80 82  1  0  0  0  0
 82 83  1  0  0  0  0
 74 84  1  0  0  0  0
 84 85  2  0  0  0  0
 85 86  1  0  0  0  0
 86 87  1  0  0  0  0
 87 88  1  0  0  0  0
 88 89  1  0  0  0  0
 89 90  1  0  0  0  0
 90 91  1  0  0  0  0
 89 92  2  0  0  0  0
 92 93  1  0  0  0  0
 93 94  1  0  0  0  0
 92 95  1  0  0  0  0
 86 96  2  0  0  0  0
 96 97  1  0  0  0  0
 85 98  1  0  0  0  0
 98 99  2  0  0  0  0
 99100  1  0  0  0  0
  5  1  2  0  0  0  0
 37 11  1  0  0  0  0
 45 41  2  0  0  0  0
 55 51  2  0  0  0  0
 65 61  2  0  0  0  0
 97 71  1  0  0  0  0
  9  4  1  0  0  0  0
 36 13  1  0  0  0  0
 49 44  1  0  0  0  0
 59 54  1  0  0  0  0
 69 64  1  0  0  0  0
 96 73  1  0  0  0  0
 22 15  2  0  0  0  0
 40 24  1  0  0  0  0
 82 75  2  0  0  0  0
100 84  1  0  0  0  0
 33 27  2  0  0  0  0
 93 87  2  0  0  0  0
  1101  1  0  0  0  0
  6102  1  0  0  0  0
  7103  1  0  0  0  0
  8104  1  0  0  0  0
 12105  1  0  0  0  0
 18106  1  0  0  0  0
 18107  1  0  0  0  0
 19108  1  0  0  0  0
 19109  1  0  0  0  0
 19110  1  0  0  0  0
 30111  1  0  0  0  0
 30112  1  0  0  0  0
 31113  1  0  0  0  0
 31114  1  0  0  0  0
 31115  1  0  0  0  0
 38116  1  0  0  0  0
 46117  1  0  0  0  0
 47118  1  0  0  0  0
 48119  1  0  0  0  0
 56120  1  0  0  0  0
 57121  1  0  0  0  0
 58122  1  0  0  0  0
 66123  1  0  0  0  0
 67124  1  0  0  0  0
 68125  1  0  0  0  0
 72126  1  0  0  0  0
 78127  1  0  0  0  0
 78128  1  0  0  0  0
 79129  1  0  0  0  0
 79130  1  0  0  0  0
 79131  1  0  0  0  0
 90132  1  0  0  0  0
 90133  1  0  0  0  0
 91134  1  0  0  0  0
 91135  1  0  0  0  0
 91136  1  0  0  0  0
 98137  1  0  0  0  0
 99138  1  0  0  0  0
M  END
