196

C          4.36120       -6.38230       10.79320
C          4.35430       -6.28910        9.44800
C          3.22750       -5.57260        8.94920
C          2.92640       -5.24220        7.61850
C          3.73010       -5.74270        6.51600
S          4.38900       -4.67940        5.30900
C          5.12510       -5.98710        4.44810
C          5.95830       -5.74330        3.23880
C          7.40480       -5.42440        3.62480
C          4.86940       -7.17130        5.07320
Cl         5.43300       -8.69170        4.51140
C          4.07540       -7.03770        6.24340
Cl         3.54620       -8.38870        7.16070
C          1.82790       -4.41890        7.40660
C          0.99560       -3.95930        8.45610
C          1.26560       -4.33390        9.78350
C          0.42360       -3.89490       10.88380
S          0.06600       -2.21040       11.13580
C         -0.87890       -2.53910       12.54770
C         -1.48690       -1.43880       13.34560
C         -0.50290       -0.91730       14.39560
C         -0.90150       -3.87800       12.80000
C         -0.16810       -4.64970       11.85860
Cl        -0.12280       -6.36170       11.91350
Cl        -1.74090       -4.58770       14.11680
C          2.38930       -5.12390        9.99830
S          3.00870       -5.61550       11.54860
C         -0.06890       -3.16000        7.97340
C         -0.05580       -2.99540        6.61840
S          1.27110       -3.84850        5.86020
C         -0.95480       -2.20700        5.83830
C         -1.99620       -1.45140        6.29780
C         -2.66470       -0.72950        5.28210
C         -3.76070        0.14670        5.41610
C         -4.35160        0.43240        6.71220
S         -3.37380        0.92540        8.06520
C         -4.74750        1.08510        9.10500
C         -4.60110        1.55560       10.50990
C         -4.60650        3.08460       10.57820
C         -5.89000        0.78080        8.42770
Cl        -7.45610        0.82330        9.12750
C         -5.67070        0.40790        7.07400
Cl        -6.94520       -0.10660        6.05070
C         -4.22280        0.75350        4.25670
C         -3.66040        0.49390        2.98220
C         -2.59120       -0.40920        2.84050
C         -2.01920       -0.68290        1.53040
S         -0.33270       -0.41830        1.19520
C         -0.50140       -0.91340       -0.45310
C          0.63680       -0.88100       -1.41430
C          0.51670        0.30260       -2.37890
C         -1.79220       -1.26950       -0.71120
C         -2.65740       -1.12880        0.40520
Cl        -4.32350       -1.53190        0.34630
Cl        -2.31150       -1.86020       -2.23520
C         -2.10240       -0.98090        4.00480
S         -0.76530       -2.08850        4.10360
C         -4.22510        1.30770        1.98230
C         -5.17770        2.18300        2.43750
S         -5.44470        1.99510        4.15900
C         -5.80340        3.15360        1.61200
S         -5.32160        3.15690       -0.04720
C         -6.24300        4.57630       -0.43450
C         -6.96610        4.99080        0.68570
C         -6.70930        4.19330        1.85580
C         -7.35990        4.49910        3.06860
C         -8.26200        5.52260        3.11590
C         -8.57620        6.27080        1.96550
C         -7.94450        6.00210        0.78710
F         -8.28970        6.69160       -0.32100
C         -6.00630        5.05370       -1.75530
S         -5.65270        3.79650       -2.89910
C         -4.83840        4.86770       -3.99200
C         -4.98060        6.18550       -3.55020
C         -5.63220        6.30040       -2.27130
C         -5.71830        7.56050       -1.64560
C         -5.25300        8.67180       -2.28750
C         -4.68370        8.58910       -3.57200
C         -4.54650        7.37410       -4.17500
F         -4.01180        7.30490       -5.41110
C         -3.94400        4.22520       -4.89490
C         -3.99380        2.88150       -5.16230
C         -2.78200        2.34440       -5.63850
C         -2.45040        0.98580       -5.80920
C         -3.43030       -0.06520       -5.58990
S         -4.40580       -0.11430       -4.14760
C         -5.21130       -1.56180       -4.63580
C         -6.25240       -2.20250       -3.78470
C         -5.67310       -3.35220       -2.95740
C         -4.73650       -1.97860       -5.84390
Cl        -5.30730       -3.37600       -6.65990
C         -3.73140       -1.13600       -6.38770
Cl        -3.06350       -1.40500       -7.94290
C         -1.12780        0.70350       -6.12580
C         -0.14920        1.71200       -6.31730
C         -0.48970        3.06710       -6.16150
C          0.51610        4.11090       -6.27970
S          0.30910        5.45240       -7.36300
C          1.82870        6.14680       -6.91480
C          2.33540        7.38500       -7.56800
C          3.10110        7.05190       -8.85100
C          2.44840        5.37200       -5.97970
C          1.70480        4.21940       -5.61280
Cl         2.22780        3.13100       -4.39360
Cl         3.97710        5.74000       -5.29150
C         -1.80180        3.35260       -5.81730
S         -2.41650        4.92830       -5.39490
C          1.12240        1.16440       -6.61160
C          1.14520       -0.19840       -6.59460
S         -0.42730       -0.88510       -6.24580
C          2.26450       -1.05010       -6.82540
C          2.26620       -2.40370       -6.98160
C          3.55560       -2.94410       -7.21320
C          3.91170       -4.29130       -7.38780
C          2.90550       -5.34000       -7.41270
S          1.55160       -5.25850       -8.50250
C          0.92000       -6.77450       -7.95870
C         -0.30380       -7.36200       -8.56980
C          0.03460       -8.10820       -9.86240
C          1.72420       -7.30280       -6.99360
Cl         1.42320       -8.79940       -6.20990
C          2.84790       -6.49200       -6.67870
Cl         3.95370       -6.90020       -5.43500
C          5.26390       -4.56940       -7.55410
C          6.26370       -3.56750       -7.53920
C          5.90750       -2.22110       -7.36730
C          6.90610       -1.16360       -7.33680
S          8.22870       -1.20960       -6.20850
C          8.84920        0.31300       -6.75030
C         10.04050        0.93280       -6.10780
C          9.64550        1.68140       -4.83250
C          8.06390        0.81540       -7.74380
C          6.96390       -0.01900       -8.08140
Cl         5.88330        0.35820       -9.35690
Cl         8.36070        2.30900       -8.53500
C          4.55570       -1.94060       -7.21200
S          3.87250       -0.36460       -6.93790
C          7.55850       -4.11460       -7.77480
C          7.53520       -5.44960       -7.96530
S          5.95230       -6.13670       -7.86730
H          5.08980       -6.86310       11.41630
H          5.12530       -6.69330        8.81900
H          5.93650       -6.63700        2.61240
H          5.54010       -4.90860        2.67410
H          7.83910       -6.25400        4.17690
H          7.99930       -5.25090        2.73200
H          7.44110       -4.53400        4.24800
H         -1.77310       -0.62370       12.67860
H         -2.38200       -1.81900       13.84150
H          0.39280       -0.53150       13.91470
H         -0.21670       -1.71790       15.07270
H         -0.96130       -0.11930       14.97340
H         -0.81310       -2.72140        8.61070
H         -2.27180       -1.40800        7.33420
H         -3.66410        1.17680       10.92190
H         -5.43020        1.16040       11.09980
H         -3.78270        3.49090        9.99600
H         -5.53960        3.47580       10.18080
H         -4.50180        3.41260       11.60870
H          1.57390       -0.81180       -0.86080
H          0.63970       -1.81010       -1.98980
H         -0.40990        0.24270       -2.94460
H          0.52750        1.24270       -1.83270
H          1.34870        0.29770       -3.07830
H         -3.90950        1.27790        0.95500
H         -7.14750        3.90810        3.94500
H         -8.76750        5.75720        4.03940
H         -9.32520        7.04540        2.00240
H         -6.15550        7.63930       -0.66560
H         -5.32670        9.63890       -1.81550
H         -4.35110        9.47750       -4.08430
H         -4.86700        2.29230       -4.95020
H         -7.04340       -2.58770       -4.43260
H         -6.67990       -1.45290       -3.11700
H         -6.45950       -3.81910       -2.37020
H         -5.23120       -4.10200       -3.60830
H         -4.90750       -2.98340       -2.28090
H          1.49430        8.03840       -7.80500
H          2.99780        7.90330       -6.87190
H          3.94900        6.40940       -8.62800
H          2.45120        6.53830       -9.55540
H          3.46740        7.96390       -9.31440
H          1.99220        1.75350       -6.83880
H          1.36750       -2.99150       -6.93320
H         -1.01840       -6.56610       -8.78680
H         -0.75470       -8.05270       -7.85500
H          0.48220       -7.42870      -10.58390
H          0.73710       -8.91270       -9.66000
H         -0.86700       -8.53300      -10.29520
H         10.76650        0.15570       -5.86200
H         10.49670        1.62820       -6.81470
H          8.92900        2.46580       -5.06290
H         10.52300        2.13300       -4.37760
H          9.19380        0.99730       -4.11800
H          8.45490       -3.52310       -7.80630
H          8.36400       -6.10090       -8.16280
