138

C          7.94810        3.39780        8.63730
C          6.88950        4.18000        8.93050
C          5.79470        3.98520        8.03920
C          4.53440        4.60550        8.05680
C          4.22220        5.66770        8.99900
S          2.80860        5.60140       10.00720
C          3.15900        7.13360       10.73240
C          2.23740        7.73600       11.73430
C          1.00430        8.33200       11.05130
C          4.30110        7.65740       10.20500
Cl         4.96470        9.17220       10.66490
C          4.91010        6.82710        9.22550
Cl         6.32130        7.29340        8.36700
C          3.60690        4.17200        7.12100
C          3.89100        3.18060        6.15160
C          5.15530        2.56580        6.12740
C          5.46040        1.52650        5.15970
S          6.86400        1.62180        4.13790
C          6.48260        0.13410        3.34230
C          7.31910       -0.38320        2.22470
C          6.86140        0.19780        0.88440
C          5.33130       -0.39260        3.84780
C          4.75180        0.38960        4.88160
Cl         3.34940       -0.10940        5.73820
Cl         4.63430       -1.86300        3.30430
C          6.08160        2.99550        7.06970
S          7.69230        2.36600        7.27250
C          2.80230        2.97560        5.27490
C          1.70620        3.74790        5.55220
S          1.99490        4.80110        6.92660
C          0.47160        3.69710        4.85230
S          0.22550        2.38780        3.74220
C         -1.36590        2.91810        3.31280
C         -1.66980        4.11720        3.96600
C         -0.64280        4.54340        4.87320
C         -0.82080        5.72520        5.62370
C         -1.94220        6.48150        5.44540
C         -2.91410        6.12830        4.49060
C         -2.76790        4.98290        3.76560
F         -3.66850        4.70220        2.80060
C         -2.14260        2.12520        2.42740
S         -1.36970        1.30810        1.11430
C         -2.84600        0.60550        0.55330
C         -3.90730        0.95100        1.39710
C         -3.50430        1.80520        2.47760
C         -4.41420        2.14190        3.50080
C         -5.70190        1.69840        3.43460
C         -6.12920        0.88640        2.36890
C         -5.25100        0.51430        1.39430
F         -5.68660       -0.32640        0.43210
C         -2.79190       -0.20160       -0.62070
C         -3.71960       -0.39950       -1.60160
C         -3.27530       -1.25910       -2.63380
C         -3.97500       -1.65720       -3.78830
C         -5.27860       -1.10310       -4.10870
S         -6.63800       -2.12300       -4.47140
C         -7.68580       -0.76960       -4.72420
C         -9.10000       -0.96030       -5.14770
C         -9.18900       -1.18140       -6.65960
C         -7.00420        0.39720       -4.54720
Cl        -7.70560        1.95320       -4.72740
C         -5.64130        0.21300       -4.19210
Cl        -4.55800        1.52790       -3.98180
C         -3.35790       -2.59420       -4.60220
C         -2.06330       -3.11110       -4.35210
C         -1.32660       -2.64450       -3.24630
C          0.03940       -3.07430       -3.00810
S          0.55240       -3.63750       -1.44400
C          2.17860       -3.88650       -1.97800
C          3.21510       -4.43900       -1.06320
C          3.16900       -5.96850       -1.03840
C          2.29980       -3.55720       -3.29520
C          1.09300       -3.09090       -3.88140
Cl         1.02090       -2.52080       -5.49950
Cl         3.76740       -3.67080       -4.17860
C         -1.96660       -1.74830       -2.40110
S         -1.29470       -1.06730       -0.95070
C         -1.69350       -4.08430       -5.30460
C         -2.62770       -4.29430       -6.28660
S         -4.03930       -3.27820       -6.04980
C         -2.49650       -5.20480       -7.36720
S         -1.01730       -6.09940       -7.50140
C         -1.52620       -6.94170       -8.92900
C         -2.82620       -6.55150       -9.27540
C         -3.37440       -5.55310       -8.40060
C         -4.67280       -5.05190       -8.63180
C         -5.41830       -5.53690       -9.66590
C         -4.92460       -6.55990      -10.49460
C         -3.66990       -7.05260      -10.29180
F         -3.25390       -8.07840      -11.06550
C         -0.60500       -7.79170       -9.60230
S         -0.53480       -7.85690      -11.33510
C          0.81240       -8.88860      -11.33130
C          1.22210       -9.19630      -10.05130
C          0.42270       -8.56270       -9.04280
C          0.70380       -8.81270       -7.68300
C          1.74380       -9.62880       -7.34430
C          2.55440      -10.24030       -8.32410
C          2.28910      -10.02880       -9.64120
F          3.04150      -10.62010      -10.59340
H          8.89110        3.34900        9.14560
H          6.86640        4.86600        9.75680
H          1.92170        6.97010       12.44520
H          2.77310        8.51710       12.27630
H          1.30030        9.10740       10.34920
H          0.46470        7.55910       10.50910
H          0.34090        8.76820       11.79310
H          8.36220       -0.11580        2.40020
H          7.23490       -1.47130        2.19810
H          5.82590       -0.07030        0.69100
H          7.47850       -0.19120        0.07900
H          6.94410        1.28190        0.89560
H          2.82830        2.29370        4.44460
H         -0.06130        6.03110        6.32370
H         -2.08190        7.38570        6.01670
H         -3.76340        6.76660        4.30810
H         -4.07490        2.72660        4.34050
H         -6.40580        1.94980        4.21220
H         -7.14430        0.52490        2.32740
H         -4.69040        0.05540       -1.59940
H         -9.67160       -0.07240       -4.87210
H         -9.52080       -1.82370       -4.62960
H        -10.22480       -1.32140       -6.95660
H         -8.61990       -2.06320       -6.94460
H         -8.78710       -0.32190       -7.19000
H          3.04920       -4.05430       -0.05560
H          4.19700       -4.10870       -1.40740
H          2.19500       -6.31070       -0.69700
H          3.34940       -6.36720       -2.03360
H          3.93020       -6.35340       -0.36530
H         -0.77060       -4.63390       -5.26290
H         -5.07400       -4.29150       -7.98380
H         -6.41030       -5.15380       -9.84620
H         -5.53370       -6.97410      -11.28180
H          1.24030       -9.22750      -12.25330
H          0.08990       -8.36630       -6.91720
H          1.96020       -9.82230       -6.30520
H          3.37260      -10.88020       -8.03540
