
  xtb     03012203063D
 energy: -392.268750510449 gnorm: 0.000512604024 xtb: 6.4.1 (unknown)
196219  0     0  0            999 V2000
   -3.5130   -8.1987   14.6756 C   0  0  0  0  0  0  0  0  0  0  0  0
   -4.1080   -7.0099   14.9048 C   0  0  0  0  0  0  0  0  0  0  0  0
   -4.4707   -6.3338   13.7043 C   0  0  0  0  0  0  0  0  0  0  0  0
   -5.0488   -5.0620   13.5644 C   0  0  0  0  0  0  0  0  0  0  0  0
   -5.4199   -4.2611   14.7208 C   0  0  0  0  0  0  0  0  0  0  0  0
   -6.4997   -4.8730   15.9388 S   0  0  0  0  0  0  0  0  0  0  0  0
   -6.4291   -3.4049   16.8522 C   0  0  0  0  0  0  0  0  0  0  0  0
   -7.2329   -3.2239   18.0922 C   0  0  0  0  0  0  0  0  0  0  0  0
   -8.6264   -2.6830   17.7634 C   0  0  0  0  0  0  0  0  0  0  0  0
   -5.6182   -2.5017   16.2329 C   0  0  0  0  0  0  0  0  0  0  0  0
   -5.2983   -0.9298   16.8421 Cl  0  0  0  0  0  0  0  0  0  0  0  0
   -5.0416   -2.9836   15.0269 C   0  0  0  0  0  0  0  0  0  0  0  0
   -3.9208   -2.0631   14.1128 Cl  0  0  0  0  0  0  0  0  0  0  0  0
   -5.2394   -4.5968   12.2709 C   0  0  0  0  0  0  0  0  0  0  0  0
   -4.8777   -5.3395   11.1203 C   0  0  0  0  0  0  0  0  0  0  0  0
   -4.3222   -6.6235   11.2592 C   0  0  0  0  0  0  0  0  0  0  0  0
   -3.9818   -7.4322   10.1009 C   0  0  0  0  0  0  0  0  0  0  0  0
   -2.9623   -6.8271    8.8266 S   0  0  0  0  0  0  0  0  0  0  0  0
   -3.0488   -8.3108    7.9429 C   0  0  0  0  0  0  0  0  0  0  0  0
   -2.3894   -8.4713    6.6184 C   0  0  0  0  0  0  0  0  0  0  0  0
   -3.3596   -8.1395    5.4821 C   0  0  0  0  0  0  0  0  0  0  0  0
   -3.8343   -9.2086    8.6023 C   0  0  0  0  0  0  0  0  0  0  0  0
   -4.3611   -8.7178    9.8260 C   0  0  0  0  0  0  0  0  0  0  0  0
   -5.4419   -9.6355   10.7882 Cl  0  0  0  0  0  0  0  0  0  0  0  0
   -4.1631  -10.7910    8.0259 Cl  0  0  0  0  0  0  0  0  0  0  0  0
   -4.1219   -7.0844   12.5560 C   0  0  0  0  0  0  0  0  0  0  0  0
   -3.3578   -8.5843   12.9986 S   0  0  0  0  0  0  0  0  0  0  0  0
   -5.1843   -4.6434    9.9293 C   0  0  0  0  0  0  0  0  0  0  0  0
   -5.7702   -3.4225   10.1299 C   0  0  0  0  0  0  0  0  0  0  0  0
   -5.9832   -3.0847   11.8372 S   0  0  0  0  0  0  0  0  0  0  0  0
   -6.1017   -2.4935    9.1053 C   0  0  0  0  0  0  0  0  0  0  0  0
   -5.4013   -2.7290    7.5442 S   0  0  0  0  0  0  0  0  0  0  0  0
   -6.1291   -1.3004    6.8788 C   0  0  0  0  0  0  0  0  0  0  0  0
   -6.9358   -0.6812    7.8424 C   0  0  0  0  0  0  0  0  0  0  0  0
   -6.9024   -1.3470    9.1168 C   0  0  0  0  0  0  0  0  0  0  0  0
   -7.6440   -0.8433   10.2060 C   0  0  0  0  0  0  0  0  0  0  0  0
   -8.4027    0.2790   10.0522 C   0  0  0  0  0  0  0  0  0  0  0  0
   -8.4805    0.9264    8.8068 C   0  0  0  0  0  0  0  0  0  0  0  0
   -7.7773    0.4496    7.7399 C   0  0  0  0  0  0  0  0  0  0  0  0
   -7.9366    1.0690    6.5529 F   0  0  0  0  0  0  0  0  0  0  0  0
   -5.7216   -0.9466    5.5605 C   0  0  0  0  0  0  0  0  0  0  0  0
   -4.9770   -1.7634    4.7456 C   0  0  0  0  0  0  0  0  0  0  0  0
   -4.5325   -1.1446    3.5608 C   0  0  0  0  0  0  0  0  0  0  0  0
   -3.7311   -1.6934    2.5424 C   0  0  0  0  0  0  0  0  0  0  0  0
   -3.1539   -3.0203    2.6683 C   0  0  0  0  0  0  0  0  0  0  0  0
   -3.3066   -4.2043    1.4052 S   0  0  0  0  0  0  0  0  0  0  0  0
   -2.3732   -5.3726    2.2794 C   0  0  0  0  0  0  0  0  0  0  0  0
   -2.1151   -6.7257    1.7138 C   0  0  0  0  0  0  0  0  0  0  0  0
   -3.4169   -7.4785    1.4388 C   0  0  0  0  0  0  0  0  0  0  0  0
   -1.9742   -4.8572    3.4761 C   0  0  0  0  0  0  0  0  0  0  0  0
   -1.0029   -5.6952    4.6144 Cl  0  0  0  0  0  0  0  0  0  0  0  0
   -2.4144   -3.5254    3.7020 C   0  0  0  0  0  0  0  0  0  0  0  0
   -1.9726   -2.6387    5.1057 Cl  0  0  0  0  0  0  0  0  0  0  0  0
   -3.4787   -0.8884    1.4416 C   0  0  0  0  0  0  0  0  0  0  0  0
   -3.9626    0.4385    1.3283 C   0  0  0  0  0  0  0  0  0  0  0  0
   -4.7316    0.9995    2.3640 C   0  0  0  0  0  0  0  0  0  0  0  0
   -5.2202    2.3660    2.2808 C   0  0  0  0  0  0  0  0  0  0  0  0
   -6.1477    2.9056    0.9114 S   0  0  0  0  0  0  0  0  0  0  0  0
   -6.3263    4.4997    1.5585 C   0  0  0  0  0  0  0  0  0  0  0  0
   -7.1209    5.5403    0.8496 C   0  0  0  0  0  0  0  0  0  0  0  0
   -8.5913    5.4857    1.2712 C   0  0  0  0  0  0  0  0  0  0  0  0
   -5.7053    4.5905    2.7681 C   0  0  0  0  0  0  0  0  0  0  0  0
   -5.0747    3.3857    3.1801 C   0  0  0  0  0  0  0  0  0  0  0  0
   -4.1530    3.2803    4.6198 Cl  0  0  0  0  0  0  0  0  0  0  0  0
   -5.6627    6.0215    3.7130 Cl  0  0  0  0  0  0  0  0  0  0  0  0
   -4.9951    0.1921    3.4624 C   0  0  0  0  0  0  0  0  0  0  0  0
   -5.9454    0.6357    4.8454 S   0  0  0  0  0  0  0  0  0  0  0  0
   -3.4959    1.0694    0.1507 C   0  0  0  0  0  0  0  0  0  0  0  0
   -2.6871    0.2767   -0.6089 C   0  0  0  0  0  0  0  0  0  0  0  0
   -2.4741   -1.3177    0.0854 S   0  0  0  0  0  0  0  0  0  0  0  0
   -2.0015    0.6348   -1.8044 C   0  0  0  0  0  0  0  0  0  0  0  0
   -1.0895   -0.1047   -2.4972 C   0  0  0  0  0  0  0  0  0  0  0  0
   -0.5284    0.5810   -3.6010 C   0  0  0  0  0  0  0  0  0  0  0  0
    0.4472    0.1195   -4.5032 C   0  0  0  0  0  0  0  0  0  0  0  0
    0.9114   -1.2556   -4.4743 C   0  0  0  0  0  0  0  0  0  0  0  0
    2.6065   -1.6420   -4.4650 S   0  0  0  0  0  0  0  0  0  0  0  0
    2.2983   -3.3454   -4.4480 C   0  0  0  0  0  0  0  0  0  0  0  0
    3.4196   -4.3244   -4.4691 C   0  0  0  0  0  0  0  0  0  0  0  0
    4.1632   -4.2849   -5.8053 C   0  0  0  0  0  0  0  0  0  0  0  0
    0.9565   -3.5837   -4.4570 C   0  0  0  0  0  0  0  0  0  0  0  0
    0.2575   -5.1513   -4.4535 Cl  0  0  0  0  0  0  0  0  0  0  0  0
    0.1660   -2.4029   -4.4674 C   0  0  0  0  0  0  0  0  0  0  0  0
   -1.5478   -2.4449   -4.5548 Cl  0  0  0  0  0  0  0  0  0  0  0  0
    0.9488    1.0435   -5.4087 C   0  0  0  0  0  0  0  0  0  0  0  0
    0.4741    2.3745   -5.5015 C   0  0  0  0  0  0  0  0  0  0  0  0
   -0.5797    2.8019   -4.6723 C   0  0  0  0  0  0  0  0  0  0  0  0
   -1.1673    4.1205   -4.8206 C   0  0  0  0  0  0  0  0  0  0  0  0
   -1.4438    5.1559   -3.4516 S   0  0  0  0  0  0  0  0  0  0  0  0
   -2.1431    6.3996   -4.4320 C   0  0  0  0  0  0  0  0  0  0  0  0
   -2.6790    7.6440   -3.8156 C   0  0  0  0  0  0  0  0  0  0  0  0
   -3.9651    7.3582   -3.0371 C   0  0  0  0  0  0  0  0  0  0  0  0
   -2.1584    6.0186   -5.7404 C   0  0  0  0  0  0  0  0  0  0  0  0
   -1.6026    4.7307   -5.9657 C   0  0  0  0  0  0  0  0  0  0  0  0
   -1.5870    4.0006   -7.5198 Cl  0  0  0  0  0  0  0  0  0  0  0  0
   -2.7827    6.9823   -7.0168 Cl  0  0  0  0  0  0  0  0  0  0  0  0
   -1.0276    1.9017   -3.7135 C   0  0  0  0  0  0  0  0  0  0  0  0
   -2.2336    2.2263   -2.5008 S   0  0  0  0  0  0  0  0  0  0  0  0
    1.2069    3.1377   -6.4427 C   0  0  0  0  0  0  0  0  0  0  0  0
    2.1755    2.4242   -7.0902 C   0  0  0  0  0  0  0  0  0  0  0  0
    2.2247    0.7514   -6.5515 S   0  0  0  0  0  0  0  0  0  0  0  0
    3.1463    2.8494   -8.0399 C   0  0  0  0  0  0  0  0  0  0  0  0
    4.6199    1.9631   -8.1596 S   0  0  0  0  0  0  0  0  0  0  0  0
    5.2883    3.0223   -9.3581 C   0  0  0  0  0  0  0  0  0  0  0  0
    4.3659    4.0263   -9.6804 C   0  0  0  0  0  0  0  0  0  0  0  0
    3.1406    3.9247   -8.9328 C   0  0  0  0  0  0  0  0  0  0  0  0
    2.0740    4.8155   -9.1784 C   0  0  0  0  0  0  0  0  0  0  0  0
    2.2138    5.8029  -10.1079 C   0  0  0  0  0  0  0  0  0  0  0  0
    3.4074    5.9348  -10.8395 C   0  0  0  0  0  0  0  0  0  0  0  0
    4.4381    5.0650  -10.6369 C   0  0  0  0  0  0  0  0  0  0  0  0
    5.5373    5.2025  -11.4036 F   0  0  0  0  0  0  0  0  0  0  0  0
    6.6171    2.7186   -9.7798 C   0  0  0  0  0  0  0  0  0  0  0  0
    7.2370    1.5225   -9.5221 C   0  0  0  0  0  0  0  0  0  0  0  0
    8.5743    1.4577   -9.9660 C   0  0  0  0  0  0  0  0  0  0  0  0
    9.4885    0.4004   -9.8122 C   0  0  0  0  0  0  0  0  0  0  0  0
    9.1040   -0.8383   -9.1562 C   0  0  0  0  0  0  0  0  0  0  0  0
    7.7184   -1.7511   -9.6795 S   0  0  0  0  0  0  0  0  0  0  0  0
    7.9590   -2.9644   -8.4688 C   0  0  0  0  0  0  0  0  0  0  0  0
    7.0702   -4.1552   -8.3814 C   0  0  0  0  0  0  0  0  0  0  0  0
    7.4515   -5.2036   -9.4289 C   0  0  0  0  0  0  0  0  0  0  0  0
    9.0562   -2.6691   -7.7172 C   0  0  0  0  0  0  0  0  0  0  0  0
    9.6109   -3.6364   -6.4128 Cl  0  0  0  0  0  0  0  0  0  0  0  0
    9.7058   -1.4647   -8.1002 C   0  0  0  0  0  0  0  0  0  0  0  0
   11.0523   -0.8382   -7.2456 Cl  0  0  0  0  0  0  0  0  0  0  0  0
   10.7709    0.6036  -10.3060 C   0  0  0  0  0  0  0  0  0  0  0  0
   11.1768    1.8129  -10.9210 C   0  0  0  0  0  0  0  0  0  0  0  0
   10.2673    2.8729  -11.0603 C   0  0  0  0  0  0  0  0  0  0  0  0
   10.6587    4.1365  -11.6650 C   0  0  0  0  0  0  0  0  0  0  0  0
   12.0185    5.0361  -11.0587 S   0  0  0  0  0  0  0  0  0  0  0  0
   11.7845    6.3143  -12.2023 C   0  0  0  0  0  0  0  0  0  0  0  0
   12.6537    7.5229  -12.1933 C   0  0  0  0  0  0  0  0  0  0  0  0
   12.2068    8.5100  -11.1123 C   0  0  0  0  0  0  0  0  0  0  0  0
   10.7097    6.0464  -12.9953 C   0  0  0  0  0  0  0  0  0  0  0  0
   10.0698    4.8123  -12.6969 C   0  0  0  0  0  0  0  0  0  0  0  0
    8.7458    4.2207  -13.6084 Cl  0  0  0  0  0  0  0  0  0  0  0  0
   10.1669    7.0800  -14.2522 Cl  0  0  0  0  0  0  0  0  0  0  0  0
    8.9799    2.6688  -10.5787 C   0  0  0  0  0  0  0  0  0  0  0  0
    7.6929    3.8351  -10.5906 S   0  0  0  0  0  0  0  0  0  0  0  0
   12.5251    1.7412  -11.3777 C   0  0  0  0  0  0  0  0  0  0  0  0
   13.0999    0.5469  -11.1286 C   0  0  0  0  0  0  0  0  0  0  0  0
   12.0566   -0.5701  -10.3214 S   0  0  0  0  0  0  0  0  0  0  0  0
   -3.1434   -8.8997   15.3982 H   0  0  0  0  0  0  0  0  0  0  0  0
   -4.2818   -6.6095   15.8865 H   0  0  0  0  0  0  0  0  0  0  0  0
   -6.7141   -2.5210   18.7467 H   0  0  0  0  0  0  0  0  0  0  0  0
   -7.3258   -4.1811   18.6078 H   0  0  0  0  0  0  0  0  0  0  0  0
   -9.2006   -2.5505   18.6762 H   0  0  0  0  0  0  0  0  0  0  0  0
   -8.5475   -1.7236   17.2583 H   0  0  0  0  0  0  0  0  0  0  0  0
   -9.1564   -3.3756   17.1139 H   0  0  0  0  0  0  0  0  0  0  0  0
   -1.5232   -7.8113    6.5601 H   0  0  0  0  0  0  0  0  0  0  0  0
   -2.0521   -9.5048    6.5164 H   0  0  0  0  0  0  0  0  0  0  0  0
   -3.6854   -7.1045    5.5537 H   0  0  0  0  0  0  0  0  0  0  0  0
   -2.8673   -8.2843    4.5248 H   0  0  0  0  0  0  0  0  0  0  0  0
   -4.2322   -8.7860    5.5300 H   0  0  0  0  0  0  0  0  0  0  0  0
   -4.9851   -5.0295    8.9463 H   0  0  0  0  0  0  0  0  0  0  0  0
   -7.6108   -1.3566   11.1525 H   0  0  0  0  0  0  0  0  0  0  0  0
   -8.9688    0.6722   10.8816 H   0  0  0  0  0  0  0  0  0  0  0  0
   -9.1078    1.7934    8.6754 H   0  0  0  0  0  0  0  0  0  0  0  0
   -4.7599   -2.7859    4.9962 H   0  0  0  0  0  0  0  0  0  0  0  0
   -1.5567   -6.6255    0.7794 H   0  0  0  0  0  0  0  0  0  0  0  0
   -1.4983   -7.2824    2.4217 H   0  0  0  0  0  0  0  0  0  0  0  0
   -3.2005   -8.4693    1.0486 H   0  0  0  0  0  0  0  0  0  0  0  0
   -4.0144   -6.9387    0.7082 H   0  0  0  0  0  0  0  0  0  0  0  0
   -3.9979   -7.5820    2.3519 H   0  0  0  0  0  0  0  0  0  0  0  0
   -7.0436    5.3837   -0.2276 H   0  0  0  0  0  0  0  0  0  0  0  0
   -6.7090    6.5218    1.0926 H   0  0  0  0  0  0  0  0  0  0  0  0
   -8.6821    5.6524    2.3414 H   0  0  0  0  0  0  0  0  0  0  0  0
   -9.1583    6.2516    0.7491 H   0  0  0  0  0  0  0  0  0  0  0  0
   -9.0159    4.5132    1.0341 H   0  0  0  0  0  0  0  0  0  0  0  0
   -3.7258    2.0842   -0.1194 H   0  0  0  0  0  0  0  0  0  0  0  0
   -0.8045   -1.0973   -2.1991 H   0  0  0  0  0  0  0  0  0  0  0  0
    4.1194   -4.0931   -3.6629 H   0  0  0  0  0  0  0  0  0  0  0  0
    3.0116   -5.3220   -4.2990 H   0  0  0  0  0  0  0  0  0  0  0  0
    4.5822   -3.2956   -5.9734 H   0  0  0  0  0  0  0  0  0  0  0  0
    3.4850   -4.5196   -6.6219 H   0  0  0  0  0  0  0  0  0  0  0  0
    4.9703   -5.0123   -5.8026 H   0  0  0  0  0  0  0  0  0  0  0  0
   -1.9337    8.0640   -3.1368 H   0  0  0  0  0  0  0  0  0  0  0  0
   -2.8766    8.3688   -4.6071 H   0  0  0  0  0  0  0  0  0  0  0  0
   -4.3446    8.2749   -2.5941 H   0  0  0  0  0  0  0  0  0  0  0  0
   -3.7724    6.6390   -2.2443 H   0  0  0  0  0  0  0  0  0  0  0  0
   -4.7248    6.9501   -3.6991 H   0  0  0  0  0  0  0  0  0  0  0  0
    1.0665    4.1942   -6.5691 H   0  0  0  0  0  0  0  0  0  0  0  0
    1.1450    4.6867   -8.6498 H   0  0  0  0  0  0  0  0  0  0  0  0
    1.4026    6.4859  -10.3048 H   0  0  0  0  0  0  0  0  0  0  0  0
    3.5128    6.7067  -11.5848 H   0  0  0  0  0  0  0  0  0  0  0  0
    6.7386    0.7090   -9.0266 H   0  0  0  0  0  0  0  0  0  0  0  0
    7.1638   -4.5837   -7.3822 H   0  0  0  0  0  0  0  0  0  0  0  0
    6.0340   -3.8486   -8.5354 H   0  0  0  0  0  0  0  0  0  0  0  0
    6.7959   -6.0665   -9.3493 H   0  0  0  0  0  0  0  0  0  0  0  0
    7.3614   -4.7869  -10.4291 H   0  0  0  0  0  0  0  0  0  0  0  0
    8.4776   -5.5300   -9.2796 H   0  0  0  0  0  0  0  0  0  0  0  0
   13.6876    7.2257  -12.0070 H   0  0  0  0  0  0  0  0  0  0  0  0
   12.5972    8.0005  -13.1731 H   0  0  0  0  0  0  0  0  0  0  0  0
   11.1811    8.8232  -11.2895 H   0  0  0  0  0  0  0  0  0  0  0  0
   12.8465    9.3883  -11.1208 H   0  0  0  0  0  0  0  0  0  0  0  0
   12.2637    8.0450  -10.1310 H   0  0  0  0  0  0  0  0  0  0  0  0
   13.0254    2.5502  -11.8772 H   0  0  0  0  0  0  0  0  0  0  0  0
   14.0963    0.2325  -11.3706 H   0  0  0  0  0  0  0  0  0  0  0  0
  1  2  2  0  0  0  0
  2  3  1  0  0  0  0
  3  4  2  0  0  0  0
  4  5  1  0  0  0  0
  5  6  1  0  0  0  0
  6  7  1  0  0  0  0
  7  8  1  0  0  0  0
  8  9  1  0  0  0  0
  7 10  2  0  0  0  0
 10 11  1  0  0  0  0
 10 12  1  0  0  0  0
 12 13  1  0  0  0  0
  4 14  1  0  0  0  0
 14 15  2  0  0  0  0
 15 16  1  0  0  0  0
 16 17  1  0  0  0  0
 17 18  1  0  0  0  0
 18 19  1  0  0  0  0
 19 20  1  0  0  0  0
 20 21  1  0  0  0  0
 19 22  2  0  0  0  0
 22 23  1  0  0  0  0
 23 24  1  0  0  0  0
 22 25  1  0  0  0  0
 16 26  2  0  0  0  0
 26 27  1  0  0  0  0
 15 28  1  0  0  0  0
 28 29  2  0  0  0  0
 29 30  1  0  0  0  0
 29 31  1  0  0  0  0
 31 32  1  0  0  0  0
 32 33  1  0  0  0  0
 33 34  2  0  0  0  0
 34 35  1  0  0  0  0
 35 36  1  0  0  0  0
 36 37  2  0  0  0  0
 37 38  1  0  0  0  0
 38 39  2  0  0  0  0
 39 40  1  0  0  0  0
 33 41  1  0  0  0  0
 41 42  2  0  0  0  0
 42 43  1  0  0  0  0
 43 44  2  0  0  0  0
 44 45  1  0  0  0  0
 45 46  1  0  0  0  0
 46 47  1  0  0  0  0
 47 48  1  0  0  0  0
 48 49  1  0  0  0  0
 47 50  2  0  0  0  0
 50 51  1  0  0  0  0
 50 52  1  0  0  0  0
 52 53  1  0  0  0  0
 44 54  1  0  0  0  0
 54 55  2  0  0  0  0
 55 56  1  0  0  0  0
 56 57  1  0  0  0  0
 57 58  1  0  0  0  0
 58 59  1  0  0  0  0
 59 60  1  0  0  0  0
 60 61  1  0  0  0  0
 59 62  2  0  0  0  0
 62 63  1  0  0  0  0
 63 64  1  0  0  0  0
 62 65  1  0  0  0  0
 56 66  2  0  0  0  0
 66 67  1  0  0  0  0
 55 68  1  0  0  0  0
 68 69  2  0  0  0  0
 69 70  1  0  0  0  0
 69 71  1  0  0  0  0
 71 72  2  0  0  0  0
 72 73  1  0  0  0  0
 73 74  2  0  0  0  0
 74 75  1  0  0  0  0
 75 76  1  0  0  0  0
 76 77  1  0  0  0  0
 77 78  1  0  0  0  0
 78 79  1  0  0  0  0
 77 80  2  0  0  0  0
 80 81  1  0  0  0  0
 80 82  1  0  0  0  0
 82 83  1  0  0  0  0
 74 84  1  0  0  0  0
 84 85  2  0  0  0  0
 85 86  1  0  0  0  0
 86 87  1  0  0  0  0
 87 88  1  0  0  0  0
 88 89  1  0  0  0  0
 89 90  1  0  0  0  0
 90 91  1  0  0  0  0
 89 92  2  0  0  0  0
 92 93  1  0  0  0  0
 93 94  1  0  0  0  0
 92 95  1  0  0  0  0
 86 96  2  0  0  0  0
 96 97  1  0  0  0  0
 85 98  1  0  0  0  0
 98 99  2  0  0  0  0
 99100  1  0  0  0  0
 99101  1  0  0  0  0
101102  1  0  0  0  0
102103  1  0  0  0  0
103104  2  0  0  0  0
104105  1  0  0  0  0
105106  1  0  0  0  0
106107  2  0  0  0  0
107108  1  0  0  0  0
108109  2  0  0  0  0
109110  1  0  0  0  0
103111  1  0  0  0  0
111112  2  0  0  0  0
112113  1  0  0  0  0
113114  2  0  0  0  0
114115  1  0  0  0  0
115116  1  0  0  0  0
116117  1  0  0  0  0
117118  1  0  0  0  0
118119  1  0  0  0  0
117120  2  0  0  0  0
120121  1  0  0  0  0
120122  1  0  0  0  0
122123  1  0  0  0  0
114124  1  0  0  0  0
124125  2  0  0  0  0
125126  1  0  0  0  0
126127  1  0  0  0  0
127128  1  0  0  0  0
128129  1  0  0  0  0
129130  1  0  0  0  0
130131  1  0  0  0  0
129132  2  0  0  0  0
132133  1  0  0  0  0
133134  1  0  0  0  0
132135  1  0  0  0  0
126136  2  0  0  0  0
136137  1  0  0  0  0
125138  1  0  0  0  0
138139  2  0  0  0  0
139140  1  0  0  0  0
 27  1  1  0  0  0  0
 35 31  2  0  0  0  0
 67 41  1  0  0  0  0
 97 71  1  0  0  0  0
105101  2  0  0  0  0
137111  1  0  0  0  0
 26  3  1  0  0  0  0
 39 34  1  0  0  0  0
 66 43  1  0  0  0  0
 96 73  1  0  0  0  0
109104  1  0  0  0  0
136113  1  0  0  0  0
 12  5  2  0  0  0  0
 30 14  1  0  0  0  0
 52 45  2  0  0  0  0
 70 54  1  0  0  0  0
 82 75  2  0  0  0  0
100 84  1  0  0  0  0
122115  2  0  0  0  0
140124  1  0  0  0  0
 23 17  2  0  0  0  0
 63 57  2  0  0  0  0
 93 87  2  0  0  0  0
133127  2  0  0  0  0
  1141  1  0  0  0  0
  2142  1  0  0  0  0
  8143  1  0  0  0  0
  8144  1  0  0  0  0
  9145  1  0  0  0  0
  9146  1  0  0  0  0
  9147  1  0  0  0  0
 20148  1  0  0  0  0
 20149  1  0  0  0  0
 21150  1  0  0  0  0
 21151  1  0  0  0  0
 21152  1  0  0  0  0
 28153  1  0  0  0  0
 36154  1  0  0  0  0
 37155  1  0  0  0  0
 38156  1  0  0  0  0
 42157  1  0  0  0  0
 48158  1  0  0  0  0
 48159  1  0  0  0  0
 49160  1  0  0  0  0
 49161  1  0  0  0  0
 49162  1  0  0  0  0
 60163  1  0  0  0  0
 60164  1  0  0  0  0
 61165  1  0  0  0  0
 61166  1  0  0  0  0
 61167  1  0  0  0  0
 68168  1  0  0  0  0
 72169  1  0  0  0  0
 78170  1  0  0  0  0
 78171  1  0  0  0  0
 79172  1  0  0  0  0
 79173  1  0  0  0  0
 79174  1  0  0  0  0
 90175  1  0  0  0  0
 90176  1  0  0  0  0
 91177  1  0  0  0  0
 91178  1  0  0  0  0
 91179  1  0  0  0  0
 98180  1  0  0  0  0
106181  1  0  0  0  0
107182  1  0  0  0  0
108183  1  0  0  0  0
112184  1  0  0  0  0
118185  1  0  0  0  0
118186  1  0  0  0  0
119187  1  0  0  0  0
119188  1  0  0  0  0
119189  1  0  0  0  0
130190  1  0  0  0  0
130191  1  0  0  0  0
131192  1  0  0  0  0
131193  1  0  0  0  0
131194  1  0  0  0  0
138195  1  0  0  0  0
139196  1  0  0  0  0
M  END
