
  xtb     03012202243D
 energy: -334.416446962535 gnorm: 0.000406507577 xtb: 6.4.1 (unknown)
167187  0     0  0            999 V2000
    6.9631  -10.9872    7.8547 C   0  0  0  0  0  0  0  0  0  0  0  0
    6.7239   -9.6623    7.7732 C   0  0  0  0  0  0  0  0  0  0  0  0
    5.3581   -9.3633    7.4972 C   0  0  0  0  0  0  0  0  0  0  0  0
    4.7670   -8.1077    7.2858 C   0  0  0  0  0  0  0  0  0  0  0  0
    5.5338   -6.8754    7.3856 C   0  0  0  0  0  0  0  0  0  0  0  0
    6.4308   -6.4831    8.8229 S   0  0  0  0  0  0  0  0  0  0  0  0
    6.9589   -4.9672    8.1762 C   0  0  0  0  0  0  0  0  0  0  0  0
    7.8762   -4.0780    8.9408 C   0  0  0  0  0  0  0  0  0  0  0  0
    9.3346   -4.4999    8.7460 C   0  0  0  0  0  0  0  0  0  0  0  0
    6.4706   -4.7962    6.9157 C   0  0  0  0  0  0  0  0  0  0  0  0
    6.7889   -3.4176    5.9454 Cl  0  0  0  0  0  0  0  0  0  0  0  0
    5.6571   -5.8714    6.4661 C   0  0  0  0  0  0  0  0  0  0  0  0
    4.9826   -5.9142    4.8912 Cl  0  0  0  0  0  0  0  0  0  0  0  0
    3.4137   -8.0918    6.9751 C   0  0  0  0  0  0  0  0  0  0  0  0
    2.6329   -9.2682    6.8594 C   0  0  0  0  0  0  0  0  0  0  0  0
    3.2254  -10.5247    7.0680 C   0  0  0  0  0  0  0  0  0  0  0  0
    2.4611  -11.7557    6.9479 C   0  0  0  0  0  0  0  0  0  0  0  0
    1.5799  -12.1329    5.4953 S   0  0  0  0  0  0  0  0  0  0  0  0
    1.0447  -13.6558    6.1197 C   0  0  0  0  0  0  0  0  0  0  0  0
    0.2243  -14.5829    5.2929 C   0  0  0  0  0  0  0  0  0  0  0  0
    1.1112  -15.4230    4.3707 C   0  0  0  0  0  0  0  0  0  0  0  0
    1.5320  -13.8480    7.3776 C   0  0  0  0  0  0  0  0  0  0  0  0
    2.3319  -12.7730    7.8517 C   0  0  0  0  0  0  0  0  0  0  0  0
    2.9849  -12.7439    9.4359 Cl  0  0  0  0  0  0  0  0  0  0  0  0
    1.2134  -15.2430    8.3246 Cl  0  0  0  0  0  0  0  0  0  0  0  0
    4.5802  -10.5398    7.3809 C   0  0  0  0  0  0  0  0  0  0  0  0
    5.5576  -11.9620    7.6077 S   0  0  0  0  0  0  0  0  0  0  0  0
    1.2778   -8.9814    6.5618 C   0  0  0  0  0  0  0  0  0  0  0  0
    1.0103   -7.6458    6.4575 C   0  0  0  0  0  0  0  0  0  0  0  0
    2.4462   -6.6703    6.7253 S   0  0  0  0  0  0  0  0  0  0  0  0
   -0.2062   -6.9881    6.1167 C   0  0  0  0  0  0  0  0  0  0  0  0
   -0.1314   -5.4161    5.4001 S   0  0  0  0  0  0  0  0  0  0  0  0
   -1.8486   -5.3131    5.2091 C   0  0  0  0  0  0  0  0  0  0  0  0
   -2.4598   -6.4841    5.6661 C   0  0  0  0  0  0  0  0  0  0  0  0
   -1.5298   -7.4275    6.2183 C   0  0  0  0  0  0  0  0  0  0  0  0
   -2.0095   -8.6226    6.7981 C   0  0  0  0  0  0  0  0  0  0  0  0
   -3.3401   -8.9168    6.7444 C   0  0  0  0  0  0  0  0  0  0  0  0
   -4.2482   -8.0623    6.0899 C   0  0  0  0  0  0  0  0  0  0  0  0
   -3.8126   -6.8816    5.5666 C   0  0  0  0  0  0  0  0  0  0  0  0
   -4.6894   -6.0962    4.9073 F   0  0  0  0  0  0  0  0  0  0  0  0
   -2.4134   -4.1390    4.6364 C   0  0  0  0  0  0  0  0  0  0  0  0
   -1.6191   -3.3813    3.3033 S   0  0  0  0  0  0  0  0  0  0  0  0
   -2.8087   -2.1328    3.1734 C   0  0  0  0  0  0  0  0  0  0  0  0
   -3.7726   -2.2678    4.1798 C   0  0  0  0  0  0  0  0  0  0  0  0
   -3.5415   -3.4083    5.0212 C   0  0  0  0  0  0  0  0  0  0  0  0
   -4.3464   -3.6401    6.1560 C   0  0  0  0  0  0  0  0  0  0  0  0
   -5.3847   -2.8009    6.4313 C   0  0  0  0  0  0  0  0  0  0  0  0
   -5.6463   -1.6895    5.6101 C   0  0  0  0  0  0  0  0  0  0  0  0
   -4.8531   -1.4281    4.5320 C   0  0  0  0  0  0  0  0  0  0  0  0
   -5.1019   -0.3095    3.8188 F   0  0  0  0  0  0  0  0  0  0  0  0
   -2.6492   -1.1961    2.1102 C   0  0  0  0  0  0  0  0  0  0  0  0
   -3.5680   -0.4585    1.4210 C   0  0  0  0  0  0  0  0  0  0  0  0
   -3.0053    0.3198    0.3806 C   0  0  0  0  0  0  0  0  0  0  0  0
   -3.6715    1.1724   -0.5192 C   0  0  0  0  0  0  0  0  0  0  0  0
   -5.1202    1.2766   -0.5337 C   0  0  0  0  0  0  0  0  0  0  0  0
   -5.9194    2.8184   -0.4680 S   0  0  0  0  0  0  0  0  0  0  0  0
   -7.4895    2.0966   -0.5583 C   0  0  0  0  0  0  0  0  0  0  0  0
   -8.7169    2.9378   -0.6025 C   0  0  0  0  0  0  0  0  0  0  0  0
   -8.8897    3.5748   -1.9833 C   0  0  0  0  0  0  0  0  0  0  0  0
   -7.3835    0.7406   -0.6431 C   0  0  0  0  0  0  0  0  0  0  0  0
   -8.7260   -0.3218   -0.7622 Cl  0  0  0  0  0  0  0  0  0  0  0  0
   -6.0427    0.2710   -0.6238 C   0  0  0  0  0  0  0  0  0  0  0  0
   -5.6467   -1.3906   -0.7925 Cl  0  0  0  0  0  0  0  0  0  0  0  0
   -2.8814    1.8986   -1.4000 C   0  0  0  0  0  0  0  0  0  0  0  0
   -1.4728    1.7667   -1.4592 C   0  0  0  0  0  0  0  0  0  0  0  0
   -0.8143    0.8501   -0.6202 C   0  0  0  0  0  0  0  0  0  0  0  0
    0.6154    0.6254   -0.7384 C   0  0  0  0  0  0  0  0  0  0  0  0
    1.6656    0.6678    0.6467 S   0  0  0  0  0  0  0  0  0  0  0  0
    3.0691    0.3389   -0.3086 C   0  0  0  0  0  0  0  0  0  0  0  0
    4.4275    0.2880    0.2986 C   0  0  0  0  0  0  0  0  0  0  0  0
    5.0922    1.6664    0.2678 C   0  0  0  0  0  0  0  0  0  0  0  0
    2.7288    0.2097   -1.6223 C   0  0  0  0  0  0  0  0  0  0  0  0
    1.3392    0.3626   -1.8704 C   0  0  0  0  0  0  0  0  0  0  0  0
    0.6575    0.1410   -3.4311 Cl  0  0  0  0  0  0  0  0  0  0  0  0
    3.8571   -0.1133   -2.8739 Cl  0  0  0  0  0  0  0  0  0  0  0  0
   -1.5982    0.1727    0.3025 C   0  0  0  0  0  0  0  0  0  0  0  0
   -1.0206   -0.9654    1.4792 S   0  0  0  0  0  0  0  0  0  0  0  0
   -0.9006    2.6372   -2.4158 C   0  0  0  0  0  0  0  0  0  0  0  0
   -1.8202    3.3735   -3.1016 C   0  0  0  0  0  0  0  0  0  0  0  0
   -3.4598    3.0448   -2.5782 S   0  0  0  0  0  0  0  0  0  0  0  0
   -1.5608    4.3011   -4.1504 C   0  0  0  0  0  0  0  0  0  0  0  0
   -2.4494    5.0866   -4.8219 C   0  0  0  0  0  0  0  0  0  0  0  0
   -1.8531    5.8698   -5.8405 C   0  0  0  0  0  0  0  0  0  0  0  0
   -2.4675    6.8055   -6.6929 C   0  0  0  0  0  0  0  0  0  0  0  0
   -3.8977    7.0544   -6.6256 C   0  0  0  0  0  0  0  0  0  0  0  0
   -5.0397    5.7462   -6.7271 S   0  0  0  0  0  0  0  0  0  0  0  0
   -6.3960    6.8118   -6.5814 C   0  0  0  0  0  0  0  0  0  0  0  0
   -7.7846    6.2774   -6.5343 C   0  0  0  0  0  0  0  0  0  0  0  0
   -8.0673    5.6123   -5.1852 C   0  0  0  0  0  0  0  0  0  0  0  0
   -5.9719    8.1006   -6.4590 C   0  0  0  0  0  0  0  0  0  0  0  0
   -7.0244    9.4444   -6.2810 Cl  0  0  0  0  0  0  0  0  0  0  0  0
   -4.5578    8.2439   -6.4912 C   0  0  0  0  0  0  0  0  0  0  0  0
   -3.7852    9.7591   -6.2849 Cl  0  0  0  0  0  0  0  0  0  0  0  0
   -1.6501    7.4583   -7.6058 C   0  0  0  0  0  0  0  0  0  0  0  0
   -0.2548    7.2253   -7.6986 C   0  0  0  0  0  0  0  0  0  0  0  0
    0.3659    6.3238   -6.8169 C   0  0  0  0  0  0  0  0  0  0  0  0
    1.8017    6.1059   -6.8310 C   0  0  0  0  0  0  0  0  0  0  0  0
    2.4700    4.5014   -6.8720 S   0  0  0  0  0  0  0  0  0  0  0  0
    4.0963    5.0912   -6.8120 C   0  0  0  0  0  0  0  0  0  0  0  0
    5.2463    4.1473   -6.7605 C   0  0  0  0  0  0  0  0  0  0  0  0
    5.3038    3.4285   -5.4109 C   0  0  0  0  0  0  0  0  0  0  0  0
    4.1043    6.4532   -6.7622 C   0  0  0  0  0  0  0  0  0  0  0  0
    2.8066    7.0319   -6.7769 C   0  0  0  0  0  0  0  0  0  0  0  0
    2.5534    8.7245   -6.6383 Cl  0  0  0  0  0  0  0  0  0  0  0  0
    5.5307    7.4061   -6.6866 Cl  0  0  0  0  0  0  0  0  0  0  0  0
   -0.4563    5.6542   -5.9205 C   0  0  0  0  0  0  0  0  0  0  0  0
    0.0783    4.4966   -4.7373 S   0  0  0  0  0  0  0  0  0  0  0  0
    0.3358    7.9425   -8.7663 C   0  0  0  0  0  0  0  0  0  0  0  0
   -0.5458    8.7248   -9.4557 C   0  0  0  0  0  0  0  0  0  0  0  0
   -2.1775    8.5821   -8.8226 S   0  0  0  0  0  0  0  0  0  0  0  0
   -0.2965    9.5787  -10.5699 C   0  0  0  0  0  0  0  0  0  0  0  0
   -1.5715    9.9331  -11.6874 S   0  0  0  0  0  0  0  0  0  0  0  0
   -0.5613   10.8851  -12.6695 C   0  0  0  0  0  0  0  0  0  0  0  0
    0.7192   10.9588  -12.1665 C   0  0  0  0  0  0  0  0  0  0  0  0
    0.8869   10.2173  -10.9474 C   0  0  0  0  0  0  0  0  0  0  0  0
    2.1320   10.2614  -10.2803 C   0  0  0  0  0  0  0  0  0  0  0  0
    3.1660   10.9650  -10.8229 C   0  0  0  0  0  0  0  0  0  0  0  0
    3.0301   11.6623  -12.0439 C   0  0  0  0  0  0  0  0  0  0  0  0
    1.8327   11.6611  -12.6867 C   0  0  0  0  0  0  0  0  0  0  0  0
    1.6745   12.3434  -13.8410 F   0  0  0  0  0  0  0  0  0  0  0  0
    7.8973  -11.4767    8.0491 H   0  0  0  0  0  0  0  0  0  0  0  0
    7.4822   -8.9111    7.8946 H   0  0  0  0  0  0  0  0  0  0  0  0
    7.7420   -3.0532    8.5900 H   0  0  0  0  0  0  0  0  0  0  0  0
    7.6242   -4.1217   10.0017 H   0  0  0  0  0  0  0  0  0  0  0  0
    9.6027   -4.4534    7.6935 H   0  0  0  0  0  0  0  0  0  0  0  0
    9.4835   -5.5176    9.0991 H   0  0  0  0  0  0  0  0  0  0  0  0
    9.9922   -3.8378    9.3026 H   0  0  0  0  0  0  0  0  0  0  0  0
   -0.4805  -14.0060    4.6914 H   0  0  0  0  0  0  0  0  0  0  0  0
   -0.3377  -15.2403    5.9587 H   0  0  0  0  0  0  0  0  0  0  0  0
    1.6716  -14.7791    3.6971 H   0  0  0  0  0  0  0  0  0  0  0  0
    1.8142  -16.0098    4.9563 H   0  0  0  0  0  0  0  0  0  0  0  0
    0.4997  -16.0994    3.7797 H   0  0  0  0  0  0  0  0  0  0  0  0
    0.5463   -9.7463    6.3847 H   0  0  0  0  0  0  0  0  0  0  0  0
   -1.3209   -9.2865    7.2929 H   0  0  0  0  0  0  0  0  0  0  0  0
   -3.7132   -9.8268    7.1876 H   0  0  0  0  0  0  0  0  0  0  0  0
   -5.2872   -8.3336    5.9948 H   0  0  0  0  0  0  0  0  0  0  0  0
   -4.1164   -4.4687    6.8063 H   0  0  0  0  0  0  0  0  0  0  0  0
   -6.0080   -2.9680    7.2955 H   0  0  0  0  0  0  0  0  0  0  0  0
   -6.4576   -1.0173    5.8397 H   0  0  0  0  0  0  0  0  0  0  0  0
   -4.6183   -0.4678    1.6335 H   0  0  0  0  0  0  0  0  0  0  0  0
   -8.6463    3.7242    0.1514 H   0  0  0  0  0  0  0  0  0  0  0  0
   -9.5795    2.3101   -0.3734 H   0  0  0  0  0  0  0  0  0  0  0  0
   -9.7833    4.1926   -2.0012 H   0  0  0  0  0  0  0  0  0  0  0  0
   -8.9823    2.8047   -2.7448 H   0  0  0  0  0  0  0  0  0  0  0  0
   -8.0294    4.1959   -2.2205 H   0  0  0  0  0  0  0  0  0  0  0  0
    4.3490   -0.0574    1.3303 H   0  0  0  0  0  0  0  0  0  0  0  0
    5.0376   -0.4219   -0.2637 H   0  0  0  0  0  0  0  0  0  0  0  0
    5.1851    2.0166   -0.7571 H   0  0  0  0  0  0  0  0  0  0  0  0
    4.4984    2.3842    0.8286 H   0  0  0  0  0  0  0  0  0  0  0  0
    6.0835    1.6121    0.7092 H   0  0  0  0  0  0  0  0  0  0  0  0
    0.1563    2.7330   -2.5854 H   0  0  0  0  0  0  0  0  0  0  0  0
   -3.4976    5.1006   -4.5851 H   0  0  0  0  0  0  0  0  0  0  0  0
   -7.9202    5.5449   -7.3326 H   0  0  0  0  0  0  0  0  0  0  0  0
   -8.4809    7.1018   -6.6949 H   0  0  0  0  0  0  0  0  0  0  0  0
   -7.9551    6.3329   -4.3790 H   0  0  0  0  0  0  0  0  0  0  0  0
   -7.3740    4.7912   -5.0179 H   0  0  0  0  0  0  0  0  0  0  0  0
   -9.0810    5.2223   -5.1649 H   0  0  0  0  0  0  0  0  0  0  0  0
    5.1458    3.4074   -7.5575 H   0  0  0  0  0  0  0  0  0  0  0  0
    6.1672    4.7098   -6.9221 H   0  0  0  0  0  0  0  0  0  0  0  0
    4.3880    2.8663   -5.2439 H   0  0  0  0  0  0  0  0  0  0  0  0
    6.1445    2.7403   -5.3895 H   0  0  0  0  0  0  0  0  0  0  0  0
    5.4214    4.1477   -4.6040 H   0  0  0  0  0  0  0  0  0  0  0  0
    1.3650    7.8268   -9.0472 H   0  0  0  0  0  0  0  0  0  0  0  0
   -0.9408   11.3430  -13.5608 H   0  0  0  0  0  0  0  0  0  0  0  0
    2.2499    9.7628   -9.3332 H   0  0  0  0  0  0  0  0  0  0  0  0
    4.1164   11.0038  -10.3136 H   0  0  0  0  0  0  0  0  0  0  0  0
    3.8638   12.2066  -12.4575 H   0  0  0  0  0  0  0  0  0  0  0  0
  1  2  2  0  0  0  0
  2  3  1  0  0  0  0
  3  4  2  0  0  0  0
  4  5  1  0  0  0  0
  5  6  1  0  0  0  0
  6  7  1  0  0  0  0
  7  8  1  0  0  0  0
  8  9  1  0  0  0  0
  7 10  2  0  0  0  0
 10 11  1  0  0  0  0
 10 12  1  0  0  0  0
 12 13  1  0  0  0  0
  4 14  1  0  0  0  0
 14 15  2  0  0  0  0
 15 16  1  0  0  0  0
 16 17  1  0  0  0  0
 17 18  1  0  0  0  0
 18 19  1  0  0  0  0
 19 20  1  0  0  0  0
 20 21  1  0  0  0  0
 19 22  2  0  0  0  0
 22 23  1  0  0  0  0
 23 24  1  0  0  0  0
 22 25  1  0  0  0  0
 16 26  2  0  0  0  0
 26 27  1  0  0  0  0
 15 28  1  0  0  0  0
 28 29  2  0  0  0  0
 29 30  1  0  0  0  0
 29 31  1  0  0  0  0
 31 32  1  0  0  0  0
 32 33  1  0  0  0  0
 33 34  2  0  0  0  0
 34 35  1  0  0  0  0
 35 36  1  0  0  0  0
 36 37  2  0  0  0  0
 37 38  1  0  0  0  0
 38 39  2  0  0  0  0
 39 40  1  0  0  0  0
 33 41  1  0  0  0  0
 41 42  1  0  0  0  0
 42 43  1  0  0  0  0
 43 44  2  0  0  0  0
 44 45  1  0  0  0  0
 45 46  1  0  0  0  0
 46 47  2  0  0  0  0
 47 48  1  0  0  0  0
 48 49  2  0  0  0  0
 49 50  1  0  0  0  0
 43 51  1  0  0  0  0
 51 52  2  0  0  0  0
 52 53  1  0  0  0  0
 53 54  2  0  0  0  0
 54 55  1  0  0  0  0
 55 56  1  0  0  0  0
 56 57  1  0  0  0  0
 57 58  1  0  0  0  0
 58 59  1  0  0  0  0
 57 60  2  0  0  0  0
 60 61  1  0  0  0  0
 60 62  1  0  0  0  0
 62 63  1  0  0  0  0
 54 64  1  0  0  0  0
 64 65  2  0  0  0  0
 65 66  1  0  0  0  0
 66 67  1  0  0  0  0
 67 68  1  0  0  0  0
 68 69  1  0  0  0  0
 69 70  1  0  0  0  0
 70 71  1  0  0  0  0
 69 72  2  0  0  0  0
 72 73  1  0  0  0  0
 73 74  1  0  0  0  0
 72 75  1  0  0  0  0
 66 76  2  0  0  0  0
 76 77  1  0  0  0  0
 65 78  1  0  0  0  0
 78 79  2  0  0  0  0
 79 80  1  0  0  0  0
 79 81  1  0  0  0  0
 81 82  2  0  0  0  0
 82 83  1  0  0  0  0
 83 84  2  0  0  0  0
 84 85  1  0  0  0  0
 85 86  1  0  0  0  0
 86 87  1  0  0  0  0
 87 88  1  0  0  0  0
 88 89  1  0  0  0  0
 87 90  2  0  0  0  0
 90 91  1  0  0  0  0
 90 92  1  0  0  0  0
 92 93  1  0  0  0  0
 84 94  1  0  0  0  0
 94 95  2  0  0  0  0
 95 96  1  0  0  0  0
 96 97  1  0  0  0  0
 97 98  1  0  0  0  0
 98 99  1  0  0  0  0
 99100  1  0  0  0  0
100101  1  0  0  0  0
 99102  2  0  0  0  0
102103  1  0  0  0  0
103104  1  0  0  0  0
102105  1  0  0  0  0
 96106  2  0  0  0  0
106107  1  0  0  0  0
 95108  1  0  0  0  0
108109  2  0  0  0  0
109110  1  0  0  0  0
109111  1  0  0  0  0
111112  1  0  0  0  0
112113  1  0  0  0  0
113114  2  0  0  0  0
114115  1  0  0  0  0
115116  1  0  0  0  0
116117  2  0  0  0  0
117118  1  0  0  0  0
118119  2  0  0  0  0
119120  1  0  0  0  0
 27  1  1  0  0  0  0
 35 31  2  0  0  0  0
 45 41  2  0  0  0  0
 77 51  1  0  0  0  0
107 81  1  0  0  0  0
115111  2  0  0  0  0
 26  3  1  0  0  0  0
 39 34  1  0  0  0  0
 49 44  1  0  0  0  0
 76 53  1  0  0  0  0
106 83  1  0  0  0  0
119114  1  0  0  0  0
 12  5  2  0  0  0  0
 30 14  1  0  0  0  0
 62 55  2  0  0  0  0
 80 64  1  0  0  0  0
 92 85  2  0  0  0  0
110 94  1  0  0  0  0
 23 17  2  0  0  0  0
 73 67  2  0  0  0  0
103 97  2  0  0  0  0
  1121  1  0  0  0  0
  2122  1  0  0  0  0
  8123  1  0  0  0  0
  8124  1  0  0  0  0
  9125  1  0  0  0  0
  9126  1  0  0  0  0
  9127  1  0  0  0  0
 20128  1  0  0  0  0
 20129  1  0  0  0  0
 21130  1  0  0  0  0
 21131  1  0  0  0  0
 21132  1  0  0  0  0
 28133  1  0  0  0  0
 36134  1  0  0  0  0
 37135  1  0  0  0  0
 38136  1  0  0  0  0
 46137  1  0  0  0  0
 47138  1  0  0  0  0
 48139  1  0  0  0  0
 52140  1  0  0  0  0
 58141  1  0  0  0  0
 58142  1  0  0  0  0
 59143  1  0  0  0  0
 59144  1  0  0  0  0
 59145  1  0  0  0  0
 70146  1  0  0  0  0
 70147  1  0  0  0  0
 71148  1  0  0  0  0
 71149  1  0  0  0  0
 71150  1  0  0  0  0
 78151  1  0  0  0  0
 82152  1  0  0  0  0
 88153  1  0  0  0  0
 88154  1  0  0  0  0
 89155  1  0  0  0  0
 89156  1  0  0  0  0
 89157  1  0  0  0  0
100158  1  0  0  0  0
100159  1  0  0  0  0
101160  1  0  0  0  0
101161  1  0  0  0  0
101162  1  0  0  0  0
108163  1  0  0  0  0
113164  1  0  0  0  0
116165  1  0  0  0  0
117166  1  0  0  0  0
118167  1  0  0  0  0
M  END
