
  xtb     03012220053D
 energy: -450.108332979532 gnorm: 0.000213094907 xtb: 6.4.1 (unknown)
225251  0     0  0            999 V2000
   -2.7666  -13.0320   10.4828 C   0  0  0  0  0  0  0  0  0  0  0  0
   -2.8508  -13.7700    9.3578 C   0  0  0  0  0  0  0  0  0  0  0  0
   -3.0394  -12.9773    8.1874 C   0  0  0  0  0  0  0  0  0  0  0  0
   -3.1888  -13.4082    6.8588 C   0  0  0  0  0  0  0  0  0  0  0  0
   -3.0463  -14.8091    6.4984 C   0  0  0  0  0  0  0  0  0  0  0  0
   -4.2577  -15.6413    5.5716 S   0  0  0  0  0  0  0  0  0  0  0  0
   -3.3594  -17.1193    5.5805 C   0  0  0  0  0  0  0  0  0  0  0  0
   -3.8490  -18.3250    4.8576 C   0  0  0  0  0  0  0  0  0  0  0  0
   -3.3850  -18.3066    3.3989 C   0  0  0  0  0  0  0  0  0  0  0  0
   -2.1846  -16.9574    6.2530 C   0  0  0  0  0  0  0  0  0  0  0  0
   -1.0222  -18.2027    6.4614 Cl  0  0  0  0  0  0  0  0  0  0  0  0
   -2.0053  -15.6507    6.7793 C   0  0  0  0  0  0  0  0  0  0  0  0
   -0.5778  -15.1762    7.6067 Cl  0  0  0  0  0  0  0  0  0  0  0  0
   -3.4521  -12.4338    5.9044 C   0  0  0  0  0  0  0  0  0  0  0  0
   -3.5246  -11.0568    6.2224 C   0  0  0  0  0  0  0  0  0  0  0  0
   -3.3637  -10.6215    7.5486 C   0  0  0  0  0  0  0  0  0  0  0  0
   -3.4593   -9.2080    7.8713 C   0  0  0  0  0  0  0  0  0  0  0  0
   -2.1987   -8.3855    8.7413 S   0  0  0  0  0  0  0  0  0  0  0  0
   -3.0034   -6.8590    8.6219 C   0  0  0  0  0  0  0  0  0  0  0  0
   -2.3860   -5.6097    9.1464 C   0  0  0  0  0  0  0  0  0  0  0  0
   -1.5640   -4.9111    8.0600 C   0  0  0  0  0  0  0  0  0  0  0  0
   -4.1791   -6.9955    7.9458 C   0  0  0  0  0  0  0  0  0  0  0  0
   -4.4457   -8.3245    7.5251 C   0  0  0  0  0  0  0  0  0  0  0  0
   -5.9075   -8.7601    6.7334 Cl  0  0  0  0  0  0  0  0  0  0  0  0
   -5.2514   -5.6955    7.6217 Cl  0  0  0  0  0  0  0  0  0  0  0  0
   -3.1141  -11.5991    8.5023 C   0  0  0  0  0  0  0  0  0  0  0  0
   -2.9183  -11.3300   10.2109 S   0  0  0  0  0  0  0  0  0  0  0  0
   -3.7208  -10.2600    5.0709 C   0  0  0  0  0  0  0  0  0  0  0  0
   -3.8390  -10.9818    3.9196 C   0  0  0  0  0  0  0  0  0  0  0  0
   -3.6657  -12.7003    4.1946 S   0  0  0  0  0  0  0  0  0  0  0  0
   -4.0726  -10.4073    2.6321 C   0  0  0  0  0  0  0  0  0  0  0  0
   -4.5602   -9.1495    2.4252 C   0  0  0  0  0  0  0  0  0  0  0  0
   -4.5863   -8.7687    1.0657 C   0  0  0  0  0  0  0  0  0  0  0  0
   -4.9317   -7.5148    0.5325 C   0  0  0  0  0  0  0  0  0  0  0  0
   -5.3491   -6.4079    1.3762 C   0  0  0  0  0  0  0  0  0  0  0  0
   -4.4318   -5.9484    2.7844 S   0  0  0  0  0  0  0  0  0  0  0  0
   -5.4647   -4.6036    3.1243 C   0  0  0  0  0  0  0  0  0  0  0  0
   -5.1927   -3.6856    4.2637 C   0  0  0  0  0  0  0  0  0  0  0  0
   -4.2160   -2.5806    3.8544 C   0  0  0  0  0  0  0  0  0  0  0  0
   -6.4547   -4.5241    2.1915 C   0  0  0  0  0  0  0  0  0  0  0  0
   -7.6671   -3.3105    2.1885 Cl  0  0  0  0  0  0  0  0  0  0  0  0
   -6.3985   -5.5461    1.2057 C   0  0  0  0  0  0  0  0  0  0  0  0
   -7.6016   -5.7084   -0.0031 Cl  0  0  0  0  0  0  0  0  0  0  0  0
   -4.7645   -7.3563   -0.8360 C   0  0  0  0  0  0  0  0  0  0  0  0
   -4.3037   -8.3874   -1.6935 C   0  0  0  0  0  0  0  0  0  0  0  0
   -4.0176   -9.6599   -1.1623 C   0  0  0  0  0  0  0  0  0  0  0  0
   -3.5530  -10.7536   -1.9988 C   0  0  0  0  0  0  0  0  0  0  0  0
   -2.1969  -10.5694   -3.0743 S   0  0  0  0  0  0  0  0  0  0  0  0
   -2.2869  -12.2154   -3.6034 C   0  0  0  0  0  0  0  0  0  0  0  0
   -1.3622  -12.7354   -4.6476 C   0  0  0  0  0  0  0  0  0  0  0  0
   -1.7344  -12.1934   -6.0295 C   0  0  0  0  0  0  0  0  0  0  0  0
   -3.3153  -12.8547   -2.9793 C   0  0  0  0  0  0  0  0  0  0  0  0
   -4.0298  -12.0337   -2.0647 C   0  0  0  0  0  0  0  0  0  0  0  0
   -5.4058  -12.5975   -1.2133 Cl  0  0  0  0  0  0  0  0  0  0  0  0
   -3.7295  -14.4977   -3.2500 Cl  0  0  0  0  0  0  0  0  0  0  0  0
   -4.1478   -9.8126    0.2142 C   0  0  0  0  0  0  0  0  0  0  0  0
   -3.6912  -11.2210    1.1338 S   0  0  0  0  0  0  0  0  0  0  0  0
   -4.1306   -7.9324   -3.0248 C   0  0  0  0  0  0  0  0  0  0  0  0
   -4.3947   -6.6006   -3.1884 C   0  0  0  0  0  0  0  0  0  0  0  0
   -4.9512   -5.8622   -1.6950 S   0  0  0  0  0  0  0  0  0  0  0  0
   -4.1893   -5.7198   -4.2872 C   0  0  0  0  0  0  0  0  0  0  0  0
   -4.1400   -4.0361   -3.9171 S   0  0  0  0  0  0  0  0  0  0  0  0
   -3.6836   -3.5805   -5.5185 C   0  0  0  0  0  0  0  0  0  0  0  0
   -3.6270   -4.7090   -6.3434 C   0  0  0  0  0  0  0  0  0  0  0  0
   -3.9172   -5.9329   -5.6442 C   0  0  0  0  0  0  0  0  0  0  0  0
   -3.9356   -7.1564   -6.3452 C   0  0  0  0  0  0  0  0  0  0  0  0
   -3.6690   -7.1797   -7.6831 C   0  0  0  0  0  0  0  0  0  0  0  0
   -3.3863   -5.9944   -8.3859 C   0  0  0  0  0  0  0  0  0  0  0  0
   -3.3761   -4.7991   -7.7296 C   0  0  0  0  0  0  0  0  0  0  0  0
   -3.1439   -3.6751   -8.4385 F   0  0  0  0  0  0  0  0  0  0  0  0
   -3.3448   -2.2046   -5.6816 C   0  0  0  0  0  0  0  0  0  0  0  0
   -2.4623   -1.5693   -6.5084 C   0  0  0  0  0  0  0  0  0  0  0  0
   -2.2001   -0.2270   -6.1318 C   0  0  0  0  0  0  0  0  0  0  0  0
   -1.2877    0.6808   -6.7049 C   0  0  0  0  0  0  0  0  0  0  0  0
   -0.5347    0.3726   -7.9082 C   0  0  0  0  0  0  0  0  0  0  0  0
    0.3960   -1.0866   -8.0766 S   0  0  0  0  0  0  0  0  0  0  0  0
    0.9573   -0.6447   -9.6515 C   0  0  0  0  0  0  0  0  0  0  0  0
    1.9118   -1.5036  -10.4047 C   0  0  0  0  0  0  0  0  0  0  0  0
    3.3590   -1.1532  -10.0496 C   0  0  0  0  0  0  0  0  0  0  0  0
    0.4490    0.5676  -10.0113 C   0  0  0  0  0  0  0  0  0  0  0  0
    0.7788    1.3345  -11.5099 Cl  0  0  0  0  0  0  0  0  0  0  0  0
   -0.3961    1.1470   -9.0282 C   0  0  0  0  0  0  0  0  0  0  0  0
   -1.2173    2.6287   -9.2840 Cl  0  0  0  0  0  0  0  0  0  0  0  0
   -1.0965    1.8873   -6.0381 C   0  0  0  0  0  0  0  0  0  0  0  0
   -1.8213    2.2449   -4.8756 C   0  0  0  0  0  0  0  0  0  0  0  0
   -2.8082    1.3864   -4.3605 C   0  0  0  0  0  0  0  0  0  0  0  0
   -3.5725    1.7461   -3.1800 C   0  0  0  0  0  0  0  0  0  0  0  0
   -3.7330    0.6449   -1.8426 S   0  0  0  0  0  0  0  0  0  0  0  0
   -4.6719    1.7712   -0.9219 C   0  0  0  0  0  0  0  0  0  0  0  0
   -5.1782    1.4181    0.4338 C   0  0  0  0  0  0  0  0  0  0  0  0
   -5.9679    0.1098    0.4186 C   0  0  0  0  0  0  0  0  0  0  0  0
   -4.8442    2.9258   -1.6251 C   0  0  0  0  0  0  0  0  0  0  0  0
   -4.2219    2.9182   -2.9027 C   0  0  0  0  0  0  0  0  0  0  0  0
   -4.3631    4.2341   -3.9978 Cl  0  0  0  0  0  0  0  0  0  0  0  0
   -5.7254    4.2814   -1.0501 Cl  0  0  0  0  0  0  0  0  0  0  0  0
   -2.9413    0.1569   -4.9857 C   0  0  0  0  0  0  0  0  0  0  0  0
   -3.9768   -1.1235   -4.4449 S   0  0  0  0  0  0  0  0  0  0  0  0
   -1.3261    3.4245   -4.2820 C   0  0  0  0  0  0  0  0  0  0  0  0
   -0.2639    3.9678   -4.9469 C   0  0  0  0  0  0  0  0  0  0  0  0
    0.1507    3.0581   -6.3794 S   0  0  0  0  0  0  0  0  0  0  0  0
    0.4949    5.0740   -4.4563 C   0  0  0  0  0  0  0  0  0  0  0  0
    0.0843    5.9087   -3.4569 C   0  0  0  0  0  0  0  0  0  0  0  0
    1.1006    6.7617   -2.9737 C   0  0  0  0  0  0  0  0  0  0  0  0
    1.0130    7.6834   -1.9145 C   0  0  0  0  0  0  0  0  0  0  0  0
   -0.2201    7.8370   -1.1613 C   0  0  0  0  0  0  0  0  0  0  0  0
   -1.0609    6.4431   -0.5400 S   0  0  0  0  0  0  0  0  0  0  0  0
   -2.3076    7.4047    0.1732 C   0  0  0  0  0  0  0  0  0  0  0  0
   -3.4651    6.7921    0.8846 C   0  0  0  0  0  0  0  0  0  0  0  0
   -3.1804    5.3734    1.3599 C   0  0  0  0  0  0  0  0  0  0  0  0
   -2.0687    8.7270   -0.0588 C   0  0  0  0  0  0  0  0  0  0  0  0
   -3.0959    9.9865    0.4924 Cl  0  0  0  0  0  0  0  0  0  0  0  0
   -0.8888    8.9773   -0.8099 C   0  0  0  0  0  0  0  0  0  0  0  0
   -0.4315   10.5566   -1.2909 Cl  0  0  0  0  0  0  0  0  0  0  0  0
    2.1731    8.3777   -1.5954 C   0  0  0  0  0  0  0  0  0  0  0  0
    3.3929    8.1908   -2.2933 C   0  0  0  0  0  0  0  0  0  0  0  0
    3.4706    7.2863   -3.3682 C   0  0  0  0  0  0  0  0  0  0  0  0
    4.7185    7.0999   -4.0907 C   0  0  0  0  0  0  0  0  0  0  0  0
    5.5486    8.4601   -4.7901 S   0  0  0  0  0  0  0  0  0  0  0  0
    6.8264    7.4677   -5.4034 C   0  0  0  0  0  0  0  0  0  0  0  0
    7.9950    8.0688   -6.1022 C   0  0  0  0  0  0  0  0  0  0  0  0
    8.9946    8.6338   -5.0904 C   0  0  0  0  0  0  0  0  0  0  0  0
    6.6111    6.1636   -5.0724 C   0  0  0  0  0  0  0  0  0  0  0  0
    5.4154    5.9494   -4.3340 C   0  0  0  0  0  0  0  0  0  0  0  0
    4.9721    4.4048   -3.7388 Cl  0  0  0  0  0  0  0  0  0  0  0  0
    7.6701    4.8810   -5.4951 Cl  0  0  0  0  0  0  0  0  0  0  0  0
    2.3171    6.5795   -3.6786 C   0  0  0  0  0  0  0  0  0  0  0  0
    2.1522    5.3721   -4.9234 S   0  0  0  0  0  0  0  0  0  0  0  0
    4.4523    8.9248   -1.7079 C   0  0  0  0  0  0  0  0  0  0  0  0
    4.0756    9.6446   -0.6122 C   0  0  0  0  0  0  0  0  0  0  0  0
    2.3726    9.4720   -0.2589 S   0  0  0  0  0  0  0  0  0  0  0  0
    4.9191   10.4518    0.2118 C   0  0  0  0  0  0  0  0  0  0  0  0
    6.2814   10.4194    0.2625 C   0  0  0  0  0  0  0  0  0  0  0  0
    6.8352   11.3542    1.1713 C   0  0  0  0  0  0  0  0  0  0  0  0
    8.1889   11.5623    1.4855 C   0  0  0  0  0  0  0  0  0  0  0  0
    9.2422   10.8182    0.8153 C   0  0  0  0  0  0  0  0  0  0  0  0
   10.4494    9.9597    1.7263 S   0  0  0  0  0  0  0  0  0  0  0  0
   11.2397    9.3929    0.2963 C   0  0  0  0  0  0  0  0  0  0  0  0
   12.4167    8.4841    0.3706 C   0  0  0  0  0  0  0  0  0  0  0  0
   11.9751    7.0195    0.4304 C   0  0  0  0  0  0  0  0  0  0  0  0
   10.5926    9.8470   -0.8142 C   0  0  0  0  0  0  0  0  0  0  0  0
   11.0925    9.4991   -2.4185 Cl  0  0  0  0  0  0  0  0  0  0  0  0
    9.4614   10.6558   -0.5252 C   0  0  0  0  0  0  0  0  0  0  0  0
    8.5305   11.4068   -1.7582 Cl  0  0  0  0  0  0  0  0  0  0  0  0
    8.4689   12.5053    2.4672 C   0  0  0  0  0  0  0  0  0  0  0  0
    7.4658   13.2525    3.1286 C   0  0  0  0  0  0  0  0  0  0  0  0
    6.1129   13.0311    2.8273 C   0  0  0  0  0  0  0  0  0  0  0  0
    5.0512   13.7283    3.5341 C   0  0  0  0  0  0  0  0  0  0  0  0
    3.7941   14.5729    2.6818 S   0  0  0  0  0  0  0  0  0  0  0  0
    3.0066   15.0401    4.1493 C   0  0  0  0  0  0  0  0  0  0  0  0
    1.7265   15.7994    4.1271 C   0  0  0  0  0  0  0  0  0  0  0  0
    0.5384   14.8498    3.9539 C   0  0  0  0  0  0  0  0  0  0  0  0
    3.6832   14.5524    5.2276 C   0  0  0  0  0  0  0  0  0  0  0  0
    4.8461   13.8128    4.8834 C   0  0  0  0  0  0  0  0  0  0  0  0
    5.8306   13.0395    6.0581 Cl  0  0  0  0  0  0  0  0  0  0  0  0
    3.1976   14.7995    6.8551 Cl  0  0  0  0  0  0  0  0  0  0  0  0
    5.8312   12.0967    1.8391 C   0  0  0  0  0  0  0  0  0  0  0  0
    4.2399   11.6314    1.3105 S   0  0  0  0  0  0  0  0  0  0  0  0
    8.0279   14.2018    4.0318 C   0  0  0  0  0  0  0  0  0  0  0  0
    9.3748   14.1588    4.0642 C   0  0  0  0  0  0  0  0  0  0  0  0
   10.0580   12.9764    3.0018 S   0  0  0  0  0  0  0  0  0  0  0  0
   -2.6256  -13.3780   11.4881 H   0  0  0  0  0  0  0  0  0  0  0  0
   -2.7988  -14.8427    9.3449 H   0  0  0  0  0  0  0  0  0  0  0  0
   -4.9392  -18.3512    4.8930 H   0  0  0  0  0  0  0  0  0  0  0  0
   -3.4596  -19.2160    5.3538 H   0  0  0  0  0  0  0  0  0  0  0  0
   -2.2991  -18.3016    3.3493 H   0  0  0  0  0  0  0  0  0  0  0  0
   -3.7539  -19.1865    2.8789 H   0  0  0  0  0  0  0  0  0  0  0  0
   -3.7600  -17.4189    2.8952 H   0  0  0  0  0  0  0  0  0  0  0  0
   -3.1784   -4.9408    9.4885 H   0  0  0  0  0  0  0  0  0  0  0  0
   -1.7422   -5.8525    9.9927 H   0  0  0  0  0  0  0  0  0  0  0  0
   -1.1230   -3.9999    8.4545 H   0  0  0  0  0  0  0  0  0  0  0  0
   -2.1971   -4.6548    7.2144 H   0  0  0  0  0  0  0  0  0  0  0  0
   -0.7667   -5.5633    7.7120 H   0  0  0  0  0  0  0  0  0  0  0  0
   -3.7346   -9.1871    5.0887 H   0  0  0  0  0  0  0  0  0  0  0  0
   -4.8946   -8.5159    3.2241 H   0  0  0  0  0  0  0  0  0  0  0  0
   -6.1355   -3.2393    4.5856 H   0  0  0  0  0  0  0  0  0  0  0  0
   -4.7744   -4.2541    5.0959 H   0  0  0  0  0  0  0  0  0  0  0  0
   -4.0355   -1.9134    4.6929 H   0  0  0  0  0  0  0  0  0  0  0  0
   -3.2685   -3.0113    3.5393 H   0  0  0  0  0  0  0  0  0  0  0  0
   -4.6258   -2.0031    3.0295 H   0  0  0  0  0  0  0  0  0  0  0  0
   -0.3387  -12.4396   -4.4082 H   0  0  0  0  0  0  0  0  0  0  0  0
   -1.4192  -13.8249   -4.6500 H   0  0  0  0  0  0  0  0  0  0  0  0
   -2.7481  -12.4880   -6.2897 H   0  0  0  0  0  0  0  0  0  0  0  0
   -1.6733  -11.1074   -6.0369 H   0  0  0  0  0  0  0  0  0  0  0  0
   -1.0543  -12.5864   -6.7802 H   0  0  0  0  0  0  0  0  0  0  0  0
   -3.7616   -8.5627   -3.8103 H   0  0  0  0  0  0  0  0  0  0  0  0
   -4.1880   -8.0628   -5.8216 H   0  0  0  0  0  0  0  0  0  0  0  0
   -3.6877   -8.1123   -8.2252 H   0  0  0  0  0  0  0  0  0  0  0  0
   -3.1956   -6.0173   -9.4468 H   0  0  0  0  0  0  0  0  0  0  0  0
   -1.9640   -2.0530   -7.3254 H   0  0  0  0  0  0  0  0  0  0  0  0
    1.7519   -1.3502  -11.4737 H   0  0  0  0  0  0  0  0  0  0  0  0
    1.7213   -2.5515  -10.1677 H   0  0  0  0  0  0  0  0  0  0  0  0
    3.5637   -0.1130  -10.2891 H   0  0  0  0  0  0  0  0  0  0  0  0
    4.0439   -1.7819  -10.6122 H   0  0  0  0  0  0  0  0  0  0  0  0
    3.5352   -1.3064   -8.9876 H   0  0  0  0  0  0  0  0  0  0  0  0
   -5.8095    2.2347    0.7884 H   0  0  0  0  0  0  0  0  0  0  0  0
   -4.3321    1.3193    1.1200 H   0  0  0  0  0  0  0  0  0  0  0  0
   -6.3326   -0.1200    1.4163 H   0  0  0  0  0  0  0  0  0  0  0  0
   -6.8205    0.1889   -0.2511 H   0  0  0  0  0  0  0  0  0  0  0  0
   -5.3380   -0.7091    0.0784 H   0  0  0  0  0  0  0  0  0  0  0  0
   -1.6930    3.8123   -3.3512 H   0  0  0  0  0  0  0  0  0  0  0  0
   -0.9189    5.9075   -3.0775 H   0  0  0  0  0  0  0  0  0  0  0  0
   -3.7286    7.4324    1.7303 H   0  0  0  0  0  0  0  0  0  0  0  0
   -4.3259    6.7790    0.2076 H   0  0  0  0  0  0  0  0  0  0  0  0
   -2.9549    4.7281    0.5135 H   0  0  0  0  0  0  0  0  0  0  0  0
   -4.0481    4.9718    1.8763 H   0  0  0  0  0  0  0  0  0  0  0  0
   -2.3315    5.3606    2.0391 H   0  0  0  0  0  0  0  0  0  0  0  0
    8.4778    7.2985   -6.7059 H   0  0  0  0  0  0  0  0  0  0  0  0
    7.6543    8.8694   -6.7613 H   0  0  0  0  0  0  0  0  0  0  0  0
    9.3531    7.8446   -4.4341 H   0  0  0  0  0  0  0  0  0  0  0  0
    8.5243    9.4041   -4.4836 H   0  0  0  0  0  0  0  0  0  0  0  0
    9.8456    9.0695   -5.6067 H   0  0  0  0  0  0  0  0  0  0  0  0
    5.4580    8.9164   -2.0838 H   0  0  0  0  0  0  0  0  0  0  0  0
    6.8710    9.7274   -0.3082 H   0  0  0  0  0  0  0  0  0  0  0  0
   13.0023    8.7239    1.2593 H   0  0  0  0  0  0  0  0  0  0  0  0
   13.0383    8.6413   -0.5129 H   0  0  0  0  0  0  0  0  0  0  0  0
   11.4026    6.7616   -0.4570 H   0  0  0  0  0  0  0  0  0  0  0  0
   12.8445    6.3700    0.4848 H   0  0  0  0  0  0  0  0  0  0  0  0
   11.3550    6.8476    1.3068 H   0  0  0  0  0  0  0  0  0  0  0  0
    1.6252   16.3468    5.0661 H   0  0  0  0  0  0  0  0  0  0  0  0
    1.7425   16.5149    3.3033 H   0  0  0  0  0  0  0  0  0  0  0  0
    0.5014   14.1390    4.7757 H   0  0  0  0  0  0  0  0  0  0  0  0
    0.6297   14.2979    3.0215 H   0  0  0  0  0  0  0  0  0  0  0  0
   -0.3907   15.4130    3.9380 H   0  0  0  0  0  0  0  0  0  0  0  0
    7.4392   14.8879    4.6118 H   0  0  0  0  0  0  0  0  0  0  0  0
   10.0390   14.7599    4.6539 H   0  0  0  0  0  0  0  0  0  0  0  0
  1  2  2  0  0  0  0
  2  3  1  0  0  0  0
  3  4  2  0  0  0  0
  4  5  1  0  0  0  0
  5  6  1  0  0  0  0
  6  7  1  0  0  0  0
  7  8  1  0  0  0  0
  8  9  1  0  0  0  0
  7 10  2  0  0  0  0
 10 11  1  0  0  0  0
 10 12  1  0  0  0  0
 12 13  1  0  0  0  0
  4 14  1  0  0  0  0
 14 15  2  0  0  0  0
 15 16  1  0  0  0  0
 16 17  1  0  0  0  0
 17 18  1  0  0  0  0
 18 19  1  0  0  0  0
 19 20  1  0  0  0  0
 20 21  1  0  0  0  0
 19 22  2  0  0  0  0
 22 23  1  0  0  0  0
 23 24  1  0  0  0  0
 22 25  1  0  0  0  0
 16 26  2  0  0  0  0
 26 27  1  0  0  0  0
 15 28  1  0  0  0  0
 28 29  2  0  0  0  0
 29 30  1  0  0  0  0
 29 31  1  0  0  0  0
 31 32  2  0  0  0  0
 32 33  1  0  0  0  0
 33 34  2  0  0  0  0
 34 35  1  0  0  0  0
 35 36  1  0  0  0  0
 36 37  1  0  0  0  0
 37 38  1  0  0  0  0
 38 39  1  0  0  0  0
 37 40  2  0  0  0  0
 40 41  1  0  0  0  0
 40 42  1  0  0  0  0
 42 43  1  0  0  0  0
 34 44  1  0  0  0  0
 44 45  2  0  0  0  0
 45 46  1  0  0  0  0
 46 47  1  0  0  0  0
 47 48  1  0  0  0  0
 48 49  1  0  0  0  0
 49 50  1  0  0  0  0
 50 51  1  0  0  0  0
 49 52  2  0  0  0  0
 52 53  1  0  0  0  0
 53 54  1  0  0  0  0
 52 55  1  0  0  0  0
 46 56  2  0  0  0  0
 56 57  1  0  0  0  0
 45 58  1  0  0  0  0
 58 59  2  0  0  0  0
 59 60  1  0  0  0  0
 59 61  1  0  0  0  0
 61 62  1  0  0  0  0
 62 63  1  0  0  0  0
 63 64  2  0  0  0  0
 64 65  1  0  0  0  0
 65 66  1  0  0  0  0
 66 67  2  0  0  0  0
 67 68  1  0  0  0  0
 68 69  2  0  0  0  0
 69 70  1  0  0  0  0
 63 71  1  0  0  0  0
 71 72  2  0  0  0  0
 72 73  1  0  0  0  0
 73 74  2  0  0  0  0
 74 75  1  0  0  0  0
 75 76  1  0  0  0  0
 76 77  1  0  0  0  0
 77 78  1  0  0  0  0
 78 79  1  0  0  0  0
 77 80  2  0  0  0  0
 80 81  1  0  0  0  0
 80 82  1  0  0  0  0
 82 83  1  0  0  0  0
 74 84  1  0  0  0  0
 84 85  2  0  0  0  0
 85 86  1  0  0  0  0
 86 87  1  0  0  0  0
 87 88  1  0  0  0  0
 88 89  1  0  0  0  0
 89 90  1  0  0  0  0
 90 91  1  0  0  0  0
 89 92  2  0  0  0  0
 92 93  1  0  0  0  0
 93 94  1  0  0  0  0
 92 95  1  0  0  0  0
 86 96  2  0  0  0  0
 96 97  1  0  0  0  0
 85 98  1  0  0  0  0
 98 99  2  0  0  0  0
 99100  1  0  0  0  0
 99101  1  0  0  0  0
101102  2  0  0  0  0
102103  1  0  0  0  0
103104  2  0  0  0  0
104105  1  0  0  0  0
105106  1  0  0  0  0
106107  1  0  0  0  0
107108  1  0  0  0  0
108109  1  0  0  0  0
107110  2  0  0  0  0
110111  1  0  0  0  0
110112  1  0  0  0  0
112113  1  0  0  0  0
104114  1  0  0  0  0
114115  2  0  0  0  0
115116  1  0  0  0  0
116117  1  0  0  0  0
117118  1  0  0  0  0
118119  1  0  0  0  0
119120  1  0  0  0  0
120121  1  0  0  0  0
119122  2  0  0  0  0
122123  1  0  0  0  0
123124  1  0  0  0  0
122125  1  0  0  0  0
116126  2  0  0  0  0
126127  1  0  0  0  0
115128  1  0  0  0  0
128129  2  0  0  0  0
129130  1  0  0  0  0
129131  1  0  0  0  0
131132  2  0  0  0  0
132133  1  0  0  0  0
133134  2  0  0  0  0
134135  1  0  0  0  0
135136  1  0  0  0  0
136137  1  0  0  0  0
137138  1  0  0  0  0
138139  1  0  0  0  0
137140  2  0  0  0  0
140141  1  0  0  0  0
140142  1  0  0  0  0
142143  1  0  0  0  0
134144  1  0  0  0  0
144145  2  0  0  0  0
145146  1  0  0  0  0
146147  1  0  0  0  0
147148  1  0  0  0  0
148149  1  0  0  0  0
149150  1  0  0  0  0
150151  1  0  0  0  0
149152  2  0  0  0  0
152153  1  0  0  0  0
153154  1  0  0  0  0
152155  1  0  0  0  0
146156  2  0  0  0  0
156157  1  0  0  0  0
145158  1  0  0  0  0
158159  2  0  0  0  0
159160  1  0  0  0  0
 27  1  1  0  0  0  0
 57 31  1  0  0  0  0
 65 61  2  0  0  0  0
 97 71  1  0  0  0  0
127101  1  0  0  0  0
157131  1  0  0  0  0
 26  3  1  0  0  0  0
 56 33  1  0  0  0  0
 69 64  1  0  0  0  0
 96 73  1  0  0  0  0
126103  1  0  0  0  0
156133  1  0  0  0  0
 12  5  2  0  0  0  0
 30 14  1  0  0  0  0
 42 35  2  0  0  0  0
 60 44  1  0  0  0  0
 82 75  2  0  0  0  0
100 84  1  0  0  0  0
112105  2  0  0  0  0
130114  1  0  0  0  0
142135  2  0  0  0  0
160144  1  0  0  0  0
 23 17  2  0  0  0  0
 53 47  2  0  0  0  0
 93 87  2  0  0  0  0
123117  2  0  0  0  0
153147  2  0  0  0  0
  1161  1  0  0  0  0
  2162  1  0  0  0  0
  8163  1  0  0  0  0
  8164  1  0  0  0  0
  9165  1  0  0  0  0
  9166  1  0  0  0  0
  9167  1  0  0  0  0
 20168  1  0  0  0  0
 20169  1  0  0  0  0
 21170  1  0  0  0  0
 21171  1  0  0  0  0
 21172  1  0  0  0  0
 28173  1  0  0  0  0
 32174  1  0  0  0  0
 38175  1  0  0  0  0
 38176  1  0  0  0  0
 39177  1  0  0  0  0
 39178  1  0  0  0  0
 39179  1  0  0  0  0
 50180  1  0  0  0  0
 50181  1  0  0  0  0
 51182  1  0  0  0  0
 51183  1  0  0  0  0
 51184  1  0  0  0  0
 58185  1  0  0  0  0
 66186  1  0  0  0  0
 67187  1  0  0  0  0
 68188  1  0  0  0  0
 72189  1  0  0  0  0
 78190  1  0  0  0  0
 78191  1  0  0  0  0
 79192  1  0  0  0  0
 79193  1  0  0  0  0
 79194  1  0  0  0  0
 90195  1  0  0  0  0
 90196  1  0  0  0  0
 91197  1  0  0  0  0
 91198  1  0  0  0  0
 91199  1  0  0  0  0
 98200  1  0  0  0  0
102201  1  0  0  0  0
108202  1  0  0  0  0
108203  1  0  0  0  0
109204  1  0  0  0  0
109205  1  0  0  0  0
109206  1  0  0  0  0
120207  1  0  0  0  0
120208  1  0  0  0  0
121209  1  0  0  0  0
121210  1  0  0  0  0
121211  1  0  0  0  0
128212  1  0  0  0  0
132213  1  0  0  0  0
138214  1  0  0  0  0
138215  1  0  0  0  0
139216  1  0  0  0  0
139217  1  0  0  0  0
139218  1  0  0  0  0
150219  1  0  0  0  0
150220  1  0  0  0  0
151221  1  0  0  0  0
151222  1  0  0  0  0
151223  1  0  0  0  0
158224  1  0  0  0  0
159225  1  0  0  0  0
M  END
