
  xtb     03012206293D
 energy: -450.079113223610 gnorm: 0.000242130672 xtb: 6.4.1 (unknown)
225251  0     0  0            999 V2000
    4.0307   -6.0960   12.7770 C   0  0  0  0  0  0  0  0  0  0  0  0
    3.2047   -6.7547   11.4457 S   0  0  0  0  0  0  0  0  0  0  0  0
    3.1200   -5.2287   10.6301 C   0  0  0  0  0  0  0  0  0  0  0  0
    3.7541   -4.2389   11.3825 C   0  0  0  0  0  0  0  0  0  0  0  0
    4.2669   -4.7463   12.6292 C   0  0  0  0  0  0  0  0  0  0  0  0
    4.9349   -3.8925   13.5401 C   0  0  0  0  0  0  0  0  0  0  0  0
    5.1174   -2.5834   13.2205 C   0  0  0  0  0  0  0  0  0  0  0  0
    4.6690   -2.0742   11.9833 C   0  0  0  0  0  0  0  0  0  0  0  0
    4.0186   -2.8789   11.0970 C   0  0  0  0  0  0  0  0  0  0  0  0
    3.6510   -2.3523    9.9092 F   0  0  0  0  0  0  0  0  0  0  0  0
    2.4105   -5.1678    9.3907 C   0  0  0  0  0  0  0  0  0  0  0  0
    1.7021   -4.1412    8.8406 C   0  0  0  0  0  0  0  0  0  0  0  0
    1.0536   -4.4843    7.6289 C   0  0  0  0  0  0  0  0  0  0  0  0
    0.2760   -3.6571    6.8009 C   0  0  0  0  0  0  0  0  0  0  0  0
    0.0812   -2.2482    7.1035 C   0  0  0  0  0  0  0  0  0  0  0  0
    0.5749   -1.0439    5.9495 S   0  0  0  0  0  0  0  0  0  0  0  0
    0.1449    0.2559    7.0012 C   0  0  0  0  0  0  0  0  0  0  0  0
    0.2902    1.6719    6.5650 C   0  0  0  0  0  0  0  0  0  0  0  0
   -0.9996    2.1733    5.9120 C   0  0  0  0  0  0  0  0  0  0  0  0
   -0.3665   -0.2283    8.1682 C   0  0  0  0  0  0  0  0  0  0  0  0
   -0.9157    0.7662    9.4543 Cl  0  0  0  0  0  0  0  0  0  0  0  0
   -0.3962   -1.6476    8.2338 C   0  0  0  0  0  0  0  0  0  0  0  0
   -1.0403   -2.4999    9.5776 Cl  0  0  0  0  0  0  0  0  0  0  0  0
   -0.2106   -4.2214    5.6297 C   0  0  0  0  0  0  0  0  0  0  0  0
    0.0912   -5.5419    5.2204 C   0  0  0  0  0  0  0  0  0  0  0  0
    0.8509   -6.3765    6.0582 C   0  0  0  0  0  0  0  0  0  0  0  0
    1.1715   -7.7431    5.6799 C   0  0  0  0  0  0  0  0  0  0  0  0
    1.9474   -8.1012    4.1649 S   0  0  0  0  0  0  0  0  0  0  0  0
    1.9957   -9.7987    4.5000 C   0  0  0  0  0  0  0  0  0  0  0  0
    2.5380  -10.7626    3.5035 C   0  0  0  0  0  0  0  0  0  0  0  0
    1.5295  -11.0144    2.3803 C   0  0  0  0  0  0  0  0  0  0  0  0
    1.4312  -10.0569    5.7128 C   0  0  0  0  0  0  0  0  0  0  0  0
    0.9697   -8.8947    6.3882 C   0  0  0  0  0  0  0  0  0  0  0  0
    0.1643   -8.9707    7.8989 Cl  0  0  0  0  0  0  0  0  0  0  0  0
    1.2829  -11.6279    6.3868 Cl  0  0  0  0  0  0  0  0  0  0  0  0
    1.2971   -5.8296    7.2541 C   0  0  0  0  0  0  0  0  0  0  0  0
    2.3059   -6.6292    8.4196 S   0  0  0  0  0  0  0  0  0  0  0  0
   -0.4632   -5.8389    3.9504 C   0  0  0  0  0  0  0  0  0  0  0  0
   -1.1949   -4.8189    3.4232 C   0  0  0  0  0  0  0  0  0  0  0  0
   -1.2526   -3.4273    4.4854 S   0  0  0  0  0  0  0  0  0  0  0  0
   -1.7965   -4.7627    2.1269 C   0  0  0  0  0  0  0  0  0  0  0  0
   -2.8547   -4.0163    1.7061 C   0  0  0  0  0  0  0  0  0  0  0  0
   -3.1123   -4.1373    0.3164 C   0  0  0  0  0  0  0  0  0  0  0  0
   -4.1321   -3.5298   -0.4386 C   0  0  0  0  0  0  0  0  0  0  0  0
   -5.2138   -2.8176    0.2177 C   0  0  0  0  0  0  0  0  0  0  0  0
   -5.6952   -1.2216   -0.2660 S   0  0  0  0  0  0  0  0  0  0  0  0
   -6.9532   -1.1505    0.9207 C   0  0  0  0  0  0  0  0  0  0  0  0
   -7.7946    0.0693    1.0663 C   0  0  0  0  0  0  0  0  0  0  0  0
   -6.9846    1.2396    1.6271 C   0  0  0  0  0  0  0  0  0  0  0  0
   -6.9820   -2.3029    1.6468 C   0  0  0  0  0  0  0  0  0  0  0  0
   -8.0960   -2.6152    2.9152 Cl  0  0  0  0  0  0  0  0  0  0  0  0
   -5.9998   -3.2509    1.2506 C   0  0  0  0  0  0  0  0  0  0  0  0
   -5.8879   -4.8101    1.9597 Cl  0  0  0  0  0  0  0  0  0  0  0  0
   -4.0442   -3.6413   -1.8211 C   0  0  0  0  0  0  0  0  0  0  0  0
   -3.0205   -4.3775   -2.4663 C   0  0  0  0  0  0  0  0  0  0  0  0
   -2.0736   -5.0850   -1.7060 C   0  0  0  0  0  0  0  0  0  0  0  0
   -1.0389   -5.8802   -2.3477 C   0  0  0  0  0  0  0  0  0  0  0  0
   -1.4467   -7.1592   -3.4533 S   0  0  0  0  0  0  0  0  0  0  0  0
    0.2153   -7.5610   -3.7239 C   0  0  0  0  0  0  0  0  0  0  0  0
    0.6013   -8.6984   -4.6033 C   0  0  0  0  0  0  0  0  0  0  0  0
    0.5119  -10.0277   -3.8501 C   0  0  0  0  0  0  0  0  0  0  0  0
    1.0239   -6.7442   -2.9917 C   0  0  0  0  0  0  0  0  0  0  0  0
    0.3184   -5.7853   -2.2150 C   0  0  0  0  0  0  0  0  0  0  0  0
    1.1176   -4.5850   -1.2878 Cl  0  0  0  0  0  0  0  0  0  0  0  0
    2.7375   -6.8371   -2.9995 Cl  0  0  0  0  0  0  0  0  0  0  0  0
   -2.1430   -4.9464   -0.3273 C   0  0  0  0  0  0  0  0  0  0  0  0
   -1.0581   -5.6696    0.8232 S   0  0  0  0  0  0  0  0  0  0  0  0
   -3.0338   -4.1922   -3.8698 C   0  0  0  0  0  0  0  0  0  0  0  0
   -4.0235   -3.3553   -4.2990 C   0  0  0  0  0  0  0  0  0  0  0  0
   -5.0713   -2.8528   -2.9850 S   0  0  0  0  0  0  0  0  0  0  0  0
   -4.0978   -2.6847   -5.5591 C   0  0  0  0  0  0  0  0  0  0  0  0
   -3.0919   -2.5864   -6.4785 C   0  0  0  0  0  0  0  0  0  0  0  0
   -3.2553   -1.5095   -7.3839 C   0  0  0  0  0  0  0  0  0  0  0  0
   -2.2538   -0.9730   -8.2268 C   0  0  0  0  0  0  0  0  0  0  0  0
   -1.1092   -1.7667   -8.6045 C   0  0  0  0  0  0  0  0  0  0  0  0
    0.5039   -1.1183   -8.6870 S   0  0  0  0  0  0  0  0  0  0  0  0
    1.1733   -2.6304   -9.1935 C   0  0  0  0  0  0  0  0  0  0  0  0
    2.6214   -2.7638   -9.5098 C   0  0  0  0  0  0  0  0  0  0  0  0
    2.9051   -2.3281  -10.9496 C   0  0  0  0  0  0  0  0  0  0  0  0
    0.1918   -3.5709   -9.3068 C   0  0  0  0  0  0  0  0  0  0  0  0
    0.4721   -5.1903   -9.8021 Cl  0  0  0  0  0  0  0  0  0  0  0  0
   -1.0996   -3.0908   -8.9715 C   0  0  0  0  0  0  0  0  0  0  0  0
   -2.4997   -4.0717   -9.1214 Cl  0  0  0  0  0  0  0  0  0  0  0  0
   -2.3908    0.3812   -8.5208 C   0  0  0  0  0  0  0  0  0  0  0  0
   -3.5918    1.0882   -8.2812 C   0  0  0  0  0  0  0  0  0  0  0  0
   -4.7120    0.4450   -7.7123 C   0  0  0  0  0  0  0  0  0  0  0  0
   -5.9627    1.1534   -7.5727 C   0  0  0  0  0  0  0  0  0  0  0  0
   -6.9133    1.1087   -6.1176 S   0  0  0  0  0  0  0  0  0  0  0  0
   -8.1146    2.1713   -6.7715 C   0  0  0  0  0  0  0  0  0  0  0  0
   -9.3006    2.5782   -5.9686 C   0  0  0  0  0  0  0  0  0  0  0  0
  -10.0164    1.3719   -5.3643 C   0  0  0  0  0  0  0  0  0  0  0  0
   -7.7893    2.5233   -8.0481 C   0  0  0  0  0  0  0  0  0  0  0  0
   -6.5705    1.9561   -8.5041 C   0  0  0  0  0  0  0  0  0  0  0  0
   -5.9805    2.2053  -10.0953 Cl  0  0  0  0  0  0  0  0  0  0  0  0
   -8.7432    3.5552   -9.0348 Cl  0  0  0  0  0  0  0  0  0  0  0  0
   -4.4568   -0.8014   -7.1485 C   0  0  0  0  0  0  0  0  0  0  0  0
   -5.3985   -1.5587   -5.8932 S   0  0  0  0  0  0  0  0  0  0  0  0
   -3.3879    2.4906   -8.2686 C   0  0  0  0  0  0  0  0  0  0  0  0
   -2.0735    2.8477   -8.3754 C   0  0  0  0  0  0  0  0  0  0  0  0
   -1.0758    1.4801   -8.8756 S   0  0  0  0  0  0  0  0  0  0  0  0
   -1.4998    3.8372   -7.4937 C   0  0  0  0  0  0  0  0  0  0  0  0
   -1.9950    3.8458   -6.2215 C   0  0  0  0  0  0  0  0  0  0  0  0
   -1.1292    4.4198   -5.2717 C   0  0  0  0  0  0  0  0  0  0  0  0
   -1.2049    4.1973   -3.8910 C   0  0  0  0  0  0  0  0  0  0  0  0
   -2.2215    3.2972   -3.3573 C   0  0  0  0  0  0  0  0  0  0  0  0
   -3.9310    3.5919   -3.4293 S   0  0  0  0  0  0  0  0  0  0  0  0
   -4.3130    2.0056   -2.8469 C   0  0  0  0  0  0  0  0  0  0  0  0
   -5.7135    1.5274   -2.6762 C   0  0  0  0  0  0  0  0  0  0  0  0
   -6.7409    2.6402   -2.8165 C   0  0  0  0  0  0  0  0  0  0  0  0
   -3.1674    1.3055   -2.6111 C   0  0  0  0  0  0  0  0  0  0  0  0
   -3.1277   -0.3201   -2.0656 Cl  0  0  0  0  0  0  0  0  0  0  0  0
   -1.9834    2.0313   -2.8986 C   0  0  0  0  0  0  0  0  0  0  0  0
   -0.4254    1.3299   -2.7561 Cl  0  0  0  0  0  0  0  0  0  0  0  0
   -0.1242    4.6167   -3.1401 C   0  0  0  0  0  0  0  0  0  0  0  0
    1.0141    5.2570   -3.6944 C   0  0  0  0  0  0  0  0  0  0  0  0
    1.0932    5.4485   -5.0912 C   0  0  0  0  0  0  0  0  0  0  0  0
    2.2612    6.0319   -5.7247 C   0  0  0  0  0  0  0  0  0  0  0  0
    3.8788    5.5230   -5.3370 S   0  0  0  0  0  0  0  0  0  0  0  0
    4.5840    6.5999   -6.4928 C   0  0  0  0  0  0  0  0  0  0  0  0
    6.0610    6.7069   -6.6431 C   0  0  0  0  0  0  0  0  0  0  0  0
    6.6622    7.5776   -5.5372 C   0  0  0  0  0  0  0  0  0  0  0  0
    3.6116    7.3138   -7.1271 C   0  0  0  0  0  0  0  0  0  0  0  0
    2.2955    6.9889   -6.7035 C   0  0  0  0  0  0  0  0  0  0  0  0
    0.9145    7.7996   -7.3120 Cl  0  0  0  0  0  0  0  0  0  0  0  0
    3.9221    8.4947   -8.3327 Cl  0  0  0  0  0  0  0  0  0  0  0  0
    0.0286    4.9758   -5.8599 C   0  0  0  0  0  0  0  0  0  0  0  0
    0.0126    4.7086   -7.5956 S   0  0  0  0  0  0  0  0  0  0  0  0
    2.0000    5.4937   -2.6951 C   0  0  0  0  0  0  0  0  0  0  0  0
    1.6592    5.0006   -1.4712 C   0  0  0  0  0  0  0  0  0  0  0  0
    0.0465    4.3190   -1.4450 S   0  0  0  0  0  0  0  0  0  0  0  0
    2.4072    4.8366   -0.2616 C   0  0  0  0  0  0  0  0  0  0  0  0
    2.1679    3.8304    0.6253 C   0  0  0  0  0  0  0  0  0  0  0  0
    3.0132    3.8488    1.7577 C   0  0  0  0  0  0  0  0  0  0  0  0
    3.0120    2.9571    2.8434 C   0  0  0  0  0  0  0  0  0  0  0  0
    2.1326    1.7973    2.8477 C   0  0  0  0  0  0  0  0  0  0  0  0
    0.4193    1.9413    2.5815 S   0  0  0  0  0  0  0  0  0  0  0  0
    0.1848    0.2290    2.5998 C   0  0  0  0  0  0  0  0  0  0  0  0
   -1.1523   -0.3692    2.3352 C   0  0  0  0  0  0  0  0  0  0  0  0
   -1.2538   -0.8587    0.8888 C   0  0  0  0  0  0  0  0  0  0  0  0
    1.3726   -0.4070    2.8053 C   0  0  0  0  0  0  0  0  0  0  0  0
    1.5442   -2.1113    2.8600 Cl  0  0  0  0  0  0  0  0  0  0  0  0
    2.4748    0.4768    2.9586 C   0  0  0  0  0  0  0  0  0  0  0  0
    4.0763   -0.0904    3.1720 Cl  0  0  0  0  0  0  0  0  0  0  0  0
    3.9088    3.2267    3.8688 C   0  0  0  0  0  0  0  0  0  0  0  0
    4.8181    4.3124    3.8294 C   0  0  0  0  0  0  0  0  0  0  0  0
    4.8576    5.1642    2.7132 C   0  0  0  0  0  0  0  0  0  0  0  0
    5.7953    6.2730    2.6251 C   0  0  0  0  0  0  0  0  0  0  0  0
    5.8760    7.4960    3.8589 S   0  0  0  0  0  0  0  0  0  0  0  0
    7.0996    8.3817    3.0146 C   0  0  0  0  0  0  0  0  0  0  0  0
    7.6255    9.6708    3.5419 C   0  0  0  0  0  0  0  0  0  0  0  0
    6.7648   10.8453    3.0698 C   0  0  0  0  0  0  0  0  0  0  0  0
    7.4116    7.7570    1.8446 C   0  0  0  0  0  0  0  0  0  0  0  0
    6.6769    6.5615    1.6209 C   0  0  0  0  0  0  0  0  0  0  0  0
    6.9501    5.5575    0.2592 Cl  0  0  0  0  0  0  0  0  0  0  0  0
    8.5860    8.3361    0.7359 Cl  0  0  0  0  0  0  0  0  0  0  0  0
    3.9398    4.9171    1.6989 C   0  0  0  0  0  0  0  0  0  0  0  0
    3.7275    5.8619    0.2456 S   0  0  0  0  0  0  0  0  0  0  0  0
    5.6179    4.3632    5.0085 C   0  0  0  0  0  0  0  0  0  0  0  0
    5.3084    3.3943    5.8943 C   0  0  0  0  0  0  0  0  0  0  0  0
    4.0441    2.3434    5.3621 S   0  0  0  0  0  0  0  0  0  0  0  0
    4.3037   -6.7200   13.6041 H   0  0  0  0  0  0  0  0  0  0  0  0
    5.2928   -4.3028   14.4713 H   0  0  0  0  0  0  0  0  0  0  0  0
    5.6230   -1.9166   13.9015 H   0  0  0  0  0  0  0  0  0  0  0  0
    4.8483   -1.0435   11.7218 H   0  0  0  0  0  0  0  0  0  0  0  0
    1.6220   -3.1703    9.2868 H   0  0  0  0  0  0  0  0  0  0  0  0
    0.5234    2.2894    7.4343 H   0  0  0  0  0  0  0  0  0  0  0  0
    1.1152    1.7449    5.8540 H   0  0  0  0  0  0  0  0  0  0  0  0
   -1.2638    1.5414    5.0678 H   0  0  0  0  0  0  0  0  0  0  0  0
   -1.8158    2.1548    6.6295 H   0  0  0  0  0  0  0  0  0  0  0  0
   -0.8672    3.1913    5.5563 H   0  0  0  0  0  0  0  0  0  0  0  0
    2.7642  -11.7004    4.0135 H   0  0  0  0  0  0  0  0  0  0  0  0
    3.4609  -10.3644    3.0773 H   0  0  0  0  0  0  0  0  0  0  0  0
    1.3021  -10.0853    1.8628 H   0  0  0  0  0  0  0  0  0  0  0  0
    1.9374  -11.7226    1.6641 H   0  0  0  0  0  0  0  0  0  0  0  0
    0.6069  -11.4219    2.7862 H   0  0  0  0  0  0  0  0  0  0  0  0
   -0.3298   -6.7761    3.4413 H   0  0  0  0  0  0  0  0  0  0  0  0
   -3.4182   -3.3843    2.3685 H   0  0  0  0  0  0  0  0  0  0  0  0
   -8.2008    0.3466    0.0908 H   0  0  0  0  0  0  0  0  0  0  0  0
   -8.6251   -0.1609    1.7352 H   0  0  0  0  0  0  0  0  0  0  0  0
   -7.6139    2.1209    1.7163 H   0  0  0  0  0  0  0  0  0  0  0  0
   -6.5936    0.9908    2.6103 H   0  0  0  0  0  0  0  0  0  0  0  0
   -6.1488    1.4708    0.9707 H   0  0  0  0  0  0  0  0  0  0  0  0
    1.6249   -8.5405   -4.9479 H   0  0  0  0  0  0  0  0  0  0  0  0
   -0.0602   -8.7280   -5.4709 H   0  0  0  0  0  0  0  0  0  0  0  0
   -0.5061  -10.2001   -3.5088 H   0  0  0  0  0  0  0  0  0  0  0  0
    0.8053  -10.8461   -4.5019 H   0  0  0  0  0  0  0  0  0  0  0  0
    1.1713  -10.0159   -2.9859 H   0  0  0  0  0  0  0  0  0  0  0  0
   -2.2976   -4.6202   -4.5245 H   0  0  0  0  0  0  0  0  0  0  0  0
   -2.1955   -3.1759   -6.4287 H   0  0  0  0  0  0  0  0  0  0  0  0
    2.9163   -3.8064   -9.3776 H   0  0  0  0  0  0  0  0  0  0  0  0
    3.2006   -2.1447   -8.8228 H   0  0  0  0  0  0  0  0  0  0  0  0
    2.3434   -2.9437  -11.6476 H   0  0  0  0  0  0  0  0  0  0  0  0
    3.9644   -2.4313  -11.1685 H   0  0  0  0  0  0  0  0  0  0  0  0
    2.6177   -1.2891  -11.0920 H   0  0  0  0  0  0  0  0  0  0  0  0
   -8.9807    3.2465   -5.1638 H   0  0  0  0  0  0  0  0  0  0  0  0
   -9.9795    3.1329   -6.6183 H   0  0  0  0  0  0  0  0  0  0  0  0
  -10.8755    1.6987   -4.7846 H   0  0  0  0  0  0  0  0  0  0  0  0
  -10.3612    0.7040   -6.1494 H   0  0  0  0  0  0  0  0  0  0  0  0
   -9.3422    0.8200   -4.7135 H   0  0  0  0  0  0  0  0  0  0  0  0
   -4.1572    3.1907   -7.9966 H   0  0  0  0  0  0  0  0  0  0  0  0
   -2.8944    3.3282   -5.9461 H   0  0  0  0  0  0  0  0  0  0  0  0
   -5.9086    0.7496   -3.4216 H   0  0  0  0  0  0  0  0  0  0  0  0
   -5.7988    1.0537   -1.6949 H   0  0  0  0  0  0  0  0  0  0  0  0
   -6.5760    3.4108   -2.0673 H   0  0  0  0  0  0  0  0  0  0  0  0
   -6.6694    3.0963   -3.8009 H   0  0  0  0  0  0  0  0  0  0  0  0
   -7.7428    2.2394   -2.6908 H   0  0  0  0  0  0  0  0  0  0  0  0
    6.2812    7.1462   -7.6175 H   0  0  0  0  0  0  0  0  0  0  0  0
    6.5041    5.7102   -6.5997 H   0  0  0  0  0  0  0  0  0  0  0  0
    7.7389    7.6504   -5.6639 H   0  0  0  0  0  0  0  0  0  0  0  0
    6.4541    7.1455   -4.5612 H   0  0  0  0  0  0  0  0  0  0  0  0
    6.2387    8.5783   -5.5726 H   0  0  0  0  0  0  0  0  0  0  0  0
    2.9489    5.9616   -2.8829 H   0  0  0  0  0  0  0  0  0  0  0  0
    1.4108    3.0873    0.4581 H   0  0  0  0  0  0  0  0  0  0  0  0
   -1.9245    0.3790    2.5210 H   0  0  0  0  0  0  0  0  0  0  0  0
   -1.3054   -1.2105    3.0138 H   0  0  0  0  0  0  0  0  0  0  0  0
   -1.0835   -0.0380    0.1964 H   0  0  0  0  0  0  0  0  0  0  0  0
   -2.2420   -1.2707    0.7021 H   0  0  0  0  0  0  0  0  0  0  0  0
   -0.5148   -1.6325    0.6981 H   0  0  0  0  0  0  0  0  0  0  0  0
    7.6332    9.6405    4.6326 H   0  0  0  0  0  0  0  0  0  0  0  0
    8.6493    9.8034    3.1868 H   0  0  0  0  0  0  0  0  0  0  0  0
    7.1604   11.7786    3.4610 H   0  0  0  0  0  0  0  0  0  0  0  0
    5.7411   10.7265    3.4166 H   0  0  0  0  0  0  0  0  0  0  0  0
    6.7604   10.8959    1.9840 H   0  0  0  0  0  0  0  0  0  0  0  0
    6.3848    5.0971    5.1739 H   0  0  0  0  0  0  0  0  0  0  0  0
    5.7535    3.2135    6.8532 H   0  0  0  0  0  0  0  0  0  0  0  0
  1  2  1  0  0  0  0
  2  3  1  0  0  0  0
  3  4  2  0  0  0  0
  4  5  1  0  0  0  0
  5  6  1  0  0  0  0
  6  7  2  0  0  0  0
  7  8  1  0  0  0  0
  8  9  2  0  0  0  0
  9 10  1  0  0  0  0
  3 11  1  0  0  0  0
 11 12  2  0  0  0  0
 12 13  1  0  0  0  0
 13 14  2  0  0  0  0
 14 15  1  0  0  0  0
 15 16  1  0  0  0  0
 16 17  1  0  0  0  0
 17 18  1  0  0  0  0
 18 19  1  0  0  0  0
 17 20  2  0  0  0  0
 20 21  1  0  0  0  0
 20 22  1  0  0  0  0
 22 23  1  0  0  0  0
 14 24  1  0  0  0  0
 24 25  2  0  0  0  0
 25 26  1  0  0  0  0
 26 27  1  0  0  0  0
 27 28  1  0  0  0  0
 28 29  1  0  0  0  0
 29 30  1  0  0  0  0
 30 31  1  0  0  0  0
 29 32  2  0  0  0  0
 32 33  1  0  0  0  0
 33 34  1  0  0  0  0
 32 35  1  0  0  0  0
 26 36  2  0  0  0  0
 36 37  1  0  0  0  0
 25 38  1  0  0  0  0
 38 39  2  0  0  0  0
 39 40  1  0  0  0  0
 39 41  1  0  0  0  0
 41 42  2  0  0  0  0
 42 43  1  0  0  0  0
 43 44  2  0  0  0  0
 44 45  1  0  0  0  0
 45 46  1  0  0  0  0
 46 47  1  0  0  0  0
 47 48  1  0  0  0  0
 48 49  1  0  0  0  0
 47 50  2  0  0  0  0
 50 51  1  0  0  0  0
 50 52  1  0  0  0  0
 52 53  1  0  0  0  0
 44 54  1  0  0  0  0
 54 55  2  0  0  0  0
 55 56  1  0  0  0  0
 56 57  1  0  0  0  0
 57 58  1  0  0  0  0
 58 59  1  0  0  0  0
 59 60  1  0  0  0  0
 60 61  1  0  0  0  0
 59 62  2  0  0  0  0
 62 63  1  0  0  0  0
 63 64  1  0  0  0  0
 62 65  1  0  0  0  0
 56 66  2  0  0  0  0
 66 67  1  0  0  0  0
 55 68  1  0  0  0  0
 68 69  2  0  0  0  0
 69 70  1  0  0  0  0
 69 71  1  0  0  0  0
 71 72  2  0  0  0  0
 72 73  1  0  0  0  0
 73 74  2  0  0  0  0
 74 75  1  0  0  0  0
 75 76  1  0  0  0  0
 76 77  1  0  0  0  0
 77 78  1  0  0  0  0
 78 79  1  0  0  0  0
 77 80  2  0  0  0  0
 80 81  1  0  0  0  0
 80 82  1  0  0  0  0
 82 83  1  0  0  0  0
 74 84  1  0  0  0  0
 84 85  2  0  0  0  0
 85 86  1  0  0  0  0
 86 87  1  0  0  0  0
 87 88  1  0  0  0  0
 88 89  1  0  0  0  0
 89 90  1  0  0  0  0
 90 91  1  0  0  0  0
 89 92  2  0  0  0  0
 92 93  1  0  0  0  0
 93 94  1  0  0  0  0
 92 95  1  0  0  0  0
 86 96  2  0  0  0  0
 96 97  1  0  0  0  0
 85 98  1  0  0  0  0
 98 99  2  0  0  0  0
 99100  1  0  0  0  0
 99101  1  0  0  0  0
101102  2  0  0  0  0
102103  1  0  0  0  0
103104  2  0  0  0  0
104105  1  0  0  0  0
105106  1  0  0  0  0
106107  1  0  0  0  0
107108  1  0  0  0  0
108109  1  0  0  0  0
107110  2  0  0  0  0
110111  1  0  0  0  0
110112  1  0  0  0  0
112113  1  0  0  0  0
104114  1  0  0  0  0
114115  2  0  0  0  0
115116  1  0  0  0  0
116117  1  0  0  0  0
117118  1  0  0  0  0
118119  1  0  0  0  0
119120  1  0  0  0  0
120121  1  0  0  0  0
119122  2  0  0  0  0
122123  1  0  0  0  0
123124  1  0  0  0  0
122125  1  0  0  0  0
116126  2  0  0  0  0
126127  1  0  0  0  0
115128  1  0  0  0  0
128129  2  0  0  0  0
129130  1  0  0  0  0
129131  1  0  0  0  0
131132  2  0  0  0  0
132133  1  0  0  0  0
133134  2  0  0  0  0
134135  1  0  0  0  0
135136  1  0  0  0  0
136137  1  0  0  0  0
137138  1  0  0  0  0
138139  1  0  0  0  0
137140  2  0  0  0  0
140141  1  0  0  0  0
140142  1  0  0  0  0
142143  1  0  0  0  0
134144  1  0  0  0  0
144145  2  0  0  0  0
145146  1  0  0  0  0
146147  1  0  0  0  0
147148  1  0  0  0  0
148149  1  0  0  0  0
149150  1  0  0  0  0
150151  1  0  0  0  0
149152  2  0  0  0  0
152153  1  0  0  0  0
153154  1  0  0  0  0
152155  1  0  0  0  0
146156  2  0  0  0  0
156157  1  0  0  0  0
145158  1  0  0  0  0
158159  2  0  0  0  0
159160  1  0  0  0  0
  5  1  2  0  0  0  0
 37 11  1  0  0  0  0
 67 41  1  0  0  0  0
 97 71  1  0  0  0  0
127101  1  0  0  0  0
157131  1  0  0  0  0
  9  4  1  0  0  0  0
 36 13  1  0  0  0  0
 66 43  1  0  0  0  0
 96 73  1  0  0  0  0
126103  1  0  0  0  0
156133  1  0  0  0  0
 22 15  2  0  0  0  0
 40 24  1  0  0  0  0
 52 45  2  0  0  0  0
 70 54  1  0  0  0  0
 82 75  2  0  0  0  0
100 84  1  0  0  0  0
112105  2  0  0  0  0
130114  1  0  0  0  0
142135  2  0  0  0  0
160144  1  0  0  0  0
 33 27  2  0  0  0  0
 63 57  2  0  0  0  0
 93 87  2  0  0  0  0
123117  2  0  0  0  0
153147  2  0  0  0  0
  1161  1  0  0  0  0
  6162  1  0  0  0  0
  7163  1  0  0  0  0
  8164  1  0  0  0  0
 12165  1  0  0  0  0
 18166  1  0  0  0  0
 18167  1  0  0  0  0
 19168  1  0  0  0  0
 19169  1  0  0  0  0
 19170  1  0  0  0  0
 30171  1  0  0  0  0
 30172  1  0  0  0  0
 31173  1  0  0  0  0
 31174  1  0  0  0  0
 31175  1  0  0  0  0
 38176  1  0  0  0  0
 42177  1  0  0  0  0
 48178  1  0  0  0  0
 48179  1  0  0  0  0
 49180  1  0  0  0  0
 49181  1  0  0  0  0
 49182  1  0  0  0  0
 60183  1  0  0  0  0
 60184  1  0  0  0  0
 61185  1  0  0  0  0
 61186  1  0  0  0  0
 61187  1  0  0  0  0
 68188  1  0  0  0  0
 72189  1  0  0  0  0
 78190  1  0  0  0  0
 78191  1  0  0  0  0
 79192  1  0  0  0  0
 79193  1  0  0  0  0
 79194  1  0  0  0  0
 90195  1  0  0  0  0
 90196  1  0  0  0  0
 91197  1  0  0  0  0
 91198  1  0  0  0  0
 91199  1  0  0  0  0
 98200  1  0  0  0  0
102201  1  0  0  0  0
108202  1  0  0  0  0
108203  1  0  0  0  0
109204  1  0  0  0  0
109205  1  0  0  0  0
109206  1  0  0  0  0
120207  1  0  0  0  0
120208  1  0  0  0  0
121209  1  0  0  0  0
121210  1  0  0  0  0
121211  1  0  0  0  0
128212  1  0  0  0  0
132213  1  0  0  0  0
138214  1  0  0  0  0
138215  1  0  0  0  0
139216  1  0  0  0  0
139217  1  0  0  0  0
139218  1  0  0  0  0
150219  1  0  0  0  0
150220  1  0  0  0  0
151221  1  0  0  0  0
151222  1  0  0  0  0
151223  1  0  0  0  0
158224  1  0  0  0  0
159225  1  0  0  0  0
M  END
