
  xtb     03012222323D
 energy: -451.756279139080 gnorm: 0.000376295333 xtb: 6.4.1 (unknown)
227253  0     0  0            999 V2000
    0.7708  -10.2941   11.6464 C   0  0  0  0  0  0  0  0  0  0  0  0
    1.5324   -9.2807   11.1860 C   0  0  0  0  0  0  0  0  0  0  0  0
    1.0871   -8.7831    9.9268 C   0  0  0  0  0  0  0  0  0  0  0  0
    1.5975   -7.7034    9.1903 C   0  0  0  0  0  0  0  0  0  0  0  0
    2.7783   -6.9721    9.6229 C   0  0  0  0  0  0  0  0  0  0  0  0
    4.2807   -7.7955    9.9233 S   0  0  0  0  0  0  0  0  0  0  0  0
    5.1089   -6.3199   10.2861 C   0  0  0  0  0  0  0  0  0  0  0  0
    6.5649   -6.3080   10.5964 C   0  0  0  0  0  0  0  0  0  0  0  0
    7.3961   -6.2822    9.3112 C   0  0  0  0  0  0  0  0  0  0  0  0
    4.2584   -5.2611   10.1744 C   0  0  0  0  0  0  0  0  0  0  0  0
    4.7158   -3.6322   10.4602 Cl  0  0  0  0  0  0  0  0  0  0  0  0
    2.9366   -5.6264    9.8011 C   0  0  0  0  0  0  0  0  0  0  0  0
    1.6676   -4.4817    9.6760 Cl  0  0  0  0  0  0  0  0  0  0  0  0
    0.9397   -7.3763    8.0110 C   0  0  0  0  0  0  0  0  0  0  0  0
   -0.1887   -8.0892    7.5361 C   0  0  0  0  0  0  0  0  0  0  0  0
   -0.6986   -9.1710    8.2725 C   0  0  0  0  0  0  0  0  0  0  0  0
   -1.8620   -9.9113    7.8129 C   0  0  0  0  0  0  0  0  0  0  0  0
   -3.3489   -9.0936    7.4292 S   0  0  0  0  0  0  0  0  0  0  0  0
   -4.1527  -10.5728    7.0288 C   0  0  0  0  0  0  0  0  0  0  0  0
   -5.5556  -10.5756    6.5306 C   0  0  0  0  0  0  0  0  0  0  0  0
   -5.6062  -10.2380    5.0384 C   0  0  0  0  0  0  0  0  0  0  0  0
   -3.3028  -11.6272    7.1785 C   0  0  0  0  0  0  0  0  0  0  0  0
   -2.0062  -11.2583    7.6291 C   0  0  0  0  0  0  0  0  0  0  0  0
   -0.7445  -12.4006    7.8255 Cl  0  0  0  0  0  0  0  0  0  0  0  0
   -3.7353  -13.2574    6.8631 Cl  0  0  0  0  0  0  0  0  0  0  0  0
   -0.0492   -9.4868    9.4605 C   0  0  0  0  0  0  0  0  0  0  0  0
   -0.5285  -10.7211   10.5899 S   0  0  0  0  0  0  0  0  0  0  0  0
   -0.6306   -7.6005    6.2818 C   0  0  0  0  0  0  0  0  0  0  0  0
    0.1072   -6.5536    5.8163 C   0  0  0  0  0  0  0  0  0  0  0  0
    1.4069   -6.1176    6.9050 S   0  0  0  0  0  0  0  0  0  0  0  0
   -0.0660   -5.8416    4.5937 C   0  0  0  0  0  0  0  0  0  0  0  0
    0.5790   -4.7105    4.1922 C   0  0  0  0  0  0  0  0  0  0  0  0
    0.2067   -4.2699    2.8981 C   0  0  0  0  0  0  0  0  0  0  0  0
    0.6560   -3.1275    2.2058 C   0  0  0  0  0  0  0  0  0  0  0  0
    1.7197   -2.2979    2.7374 C   0  0  0  0  0  0  0  0  0  0  0  0
    1.6106   -0.5606    2.7106 S   0  0  0  0  0  0  0  0  0  0  0  0
    3.1678   -0.3702    3.4382 C   0  0  0  0  0  0  0  0  0  0  0  0
    3.7588    0.9789    3.6531 C   0  0  0  0  0  0  0  0  0  0  0  0
    4.3941    1.4981    2.3612 C   0  0  0  0  0  0  0  0  0  0  0  0
    3.7329   -1.5881    3.6711 C   0  0  0  0  0  0  0  0  0  0  0  0
    5.2898   -1.8027    4.3576 Cl  0  0  0  0  0  0  0  0  0  0  0  0
    2.9193   -2.6837    3.2757 C   0  0  0  0  0  0  0  0  0  0  0  0
    3.4922   -4.2995    3.3421 Cl  0  0  0  0  0  0  0  0  0  0  0  0
    0.0354   -2.8460    0.9933 C   0  0  0  0  0  0  0  0  0  0  0  0
   -0.9437   -3.6959    0.4263 C   0  0  0  0  0  0  0  0  0  0  0  0
   -1.3960   -4.8334    1.1163 C   0  0  0  0  0  0  0  0  0  0  0  0
   -2.4912   -5.6255    0.5834 C   0  0  0  0  0  0  0  0  0  0  0  0
   -2.3957   -7.3535    0.4271 S   0  0  0  0  0  0  0  0  0  0  0  0
   -3.9839   -7.4596   -0.2516 C   0  0  0  0  0  0  0  0  0  0  0  0
   -4.5528   -8.7584   -0.7057 C   0  0  0  0  0  0  0  0  0  0  0  0
   -4.2783   -8.9840   -2.1949 C   0  0  0  0  0  0  0  0  0  0  0  0
   -4.5429   -6.2198   -0.3463 C   0  0  0  0  0  0  0  0  0  0  0  0
   -3.7051   -5.1796    0.1324 C   0  0  0  0  0  0  0  0  0  0  0  0
   -4.2343   -3.5472    0.2072 Cl  0  0  0  0  0  0  0  0  0  0  0  0
   -6.1087   -5.9227   -0.9782 Cl  0  0  0  0  0  0  0  0  0  0  0  0
   -0.7939   -5.1017    2.3360 C   0  0  0  0  0  0  0  0  0  0  0  0
   -1.2099   -6.4162    3.3972 S   0  0  0  0  0  0  0  0  0  0  0  0
   -1.3739   -3.2424   -0.8402 C   0  0  0  0  0  0  0  0  0  0  0  0
   -0.8212   -2.0524   -1.2090 C   0  0  0  0  0  0  0  0  0  0  0  0
    0.3308   -1.4643   -0.0292 S   0  0  0  0  0  0  0  0  0  0  0  0
   -1.2309   -1.2904   -2.3446 C   0  0  0  0  0  0  0  0  0  0  0  0
   -2.4446   -1.4155   -2.9546 C   0  0  0  0  0  0  0  0  0  0  0  0
   -2.6727   -0.4543   -3.9643 C   0  0  0  0  0  0  0  0  0  0  0  0
   -3.8769   -0.2463   -4.6685 C   0  0  0  0  0  0  0  0  0  0  0  0
   -4.9119   -1.2572   -4.6284 C   0  0  0  0  0  0  0  0  0  0  0  0
   -6.5940   -0.8833   -4.3831 S   0  0  0  0  0  0  0  0  0  0  0  0
   -7.0509   -2.5515   -4.3923 C   0  0  0  0  0  0  0  0  0  0  0  0
   -8.4546   -2.9698   -4.1302 C   0  0  0  0  0  0  0  0  0  0  0  0
   -8.6991   -3.1319   -2.6275 C   0  0  0  0  0  0  0  0  0  0  0  0
   -5.9577   -3.3427   -4.5895 C   0  0  0  0  0  0  0  0  0  0  0  0
   -6.0162   -5.0558   -4.6538 Cl  0  0  0  0  0  0  0  0  0  0  0  0
   -4.7486   -2.6162   -4.7341 C   0  0  0  0  0  0  0  0  0  0  0  0
   -3.2641   -3.3957   -5.1011 Cl  0  0  0  0  0  0  0  0  0  0  0  0
   -3.9989    0.9852   -5.3013 C   0  0  0  0  0  0  0  0  0  0  0  0
   -2.8956    1.8648   -5.4506 C   0  0  0  0  0  0  0  0  0  0  0  0
   -1.6084    1.5129   -4.9842 C   0  0  0  0  0  0  0  0  0  0  0  0
   -0.4388    2.2754   -5.3437 C   0  0  0  0  0  0  0  0  0  0  0  0
    0.9078    2.4402   -4.2550 S   0  0  0  0  0  0  0  0  0  0  0  0
    1.8232    3.3822   -5.3760 C   0  0  0  0  0  0  0  0  0  0  0  0
    3.1848    3.8696   -5.0248 C   0  0  0  0  0  0  0  0  0  0  0  0
    4.1552    2.7069   -4.8116 C   0  0  0  0  0  0  0  0  0  0  0  0
    1.1253    3.5335   -6.5380 C   0  0  0  0  0  0  0  0  0  0  0  0
   -0.1463    2.9035   -6.5324 C   0  0  0  0  0  0  0  0  0  0  0  0
   -1.1151    2.8461   -7.9478 Cl  0  0  0  0  0  0  0  0  0  0  0  0
    1.7087    4.4038   -7.8972 Cl  0  0  0  0  0  0  0  0  0  0  0  0
   -1.5733    0.4200   -4.1216 C   0  0  0  0  0  0  0  0  0  0  0  0
   -0.2794    0.0011   -3.0384 S   0  0  0  0  0  0  0  0  0  0  0  0
   -3.3013    3.1292   -5.9190 C   0  0  0  0  0  0  0  0  0  0  0  0
   -4.6524    3.2279   -6.1198 C   0  0  0  0  0  0  0  0  0  0  0  0
   -5.4862    1.7167   -5.8501 S   0  0  0  0  0  0  0  0  0  0  0  0
   -5.3685    4.4348   -6.2908 C   0  0  0  0  0  0  0  0  0  0  0  0
   -4.5337    5.9484   -6.3369 S   0  0  0  0  0  0  0  0  0  0  0  0
   -5.9726    6.8732   -6.0524 C   0  0  0  0  0  0  0  0  0  0  0  0
   -7.0851    6.0374   -6.0636 C   0  0  0  0  0  0  0  0  0  0  0  0
   -6.7424    4.6452   -6.1758 C   0  0  0  0  0  0  0  0  0  0  0  0
   -7.6682    3.6719   -6.1186 N   0  0  0  0  0  0  0  0  0  0  0  0
   -8.8985    4.0672   -5.9729 C   0  0  0  0  0  0  0  0  0  0  0  0
   -9.3407    5.3363   -5.8783 N   0  0  0  0  0  0  0  0  0  0  0  0
   -8.4651    6.2998   -5.9135 C   0  0  0  0  0  0  0  0  0  0  0  0
   -5.9151    8.2838   -5.7912 C   0  0  0  0  0  0  0  0  0  0  0  0
   -4.9463    8.9015   -5.0879 C   0  0  0  0  0  0  0  0  0  0  0  0
   -3.8852    8.2330   -4.3721 C   0  0  0  0  0  0  0  0  0  0  0  0
   -3.9484    7.0737   -3.6602 C   0  0  0  0  0  0  0  0  0  0  0  0
   -2.6997    6.6374   -3.1510 C   0  0  0  0  0  0  0  0  0  0  0  0
   -2.4120    5.4430   -2.4611 C   0  0  0  0  0  0  0  0  0  0  0  0
   -3.4762    4.5443   -2.0546 C   0  0  0  0  0  0  0  0  0  0  0  0
   -3.3981    2.8359   -2.3738 S   0  0  0  0  0  0  0  0  0  0  0  0
   -4.9419    2.5485   -1.6459 C   0  0  0  0  0  0  0  0  0  0  0  0
   -5.5124    1.1772   -1.5805 C   0  0  0  0  0  0  0  0  0  0  0  0
   -4.6542    0.2504   -0.7205 C   0  0  0  0  0  0  0  0  0  0  0  0
   -5.4669    3.7139   -1.1738 C   0  0  0  0  0  0  0  0  0  0  0  0
   -6.9851    3.8346   -0.3835 Cl  0  0  0  0  0  0  0  0  0  0  0  0
   -4.6399    4.8464   -1.4004 C   0  0  0  0  0  0  0  0  0  0  0  0
   -5.0447    6.4042   -0.8043 Cl  0  0  0  0  0  0  0  0  0  0  0  0
   -1.0719    5.1654   -2.2156 C   0  0  0  0  0  0  0  0  0  0  0  0
   -0.0379    6.0727   -2.5491 C   0  0  0  0  0  0  0  0  0  0  0  0
   -0.3293    7.2962   -3.1760 C   0  0  0  0  0  0  0  0  0  0  0  0
    0.7329    8.2343   -3.4956 C   0  0  0  0  0  0  0  0  0  0  0  0
    0.9384    8.8559   -5.1062 S   0  0  0  0  0  0  0  0  0  0  0  0
    2.3325    9.7762   -4.6567 C   0  0  0  0  0  0  0  0  0  0  0  0
    3.0933   10.5650   -5.6641 C   0  0  0  0  0  0  0  0  0  0  0  0
    4.1118    9.6835   -6.3914 C   0  0  0  0  0  0  0  0  0  0  0  0
    2.6122    9.5984   -3.3343 C   0  0  0  0  0  0  0  0  0  0  0  0
    1.7063    8.7289   -2.6708 C   0  0  0  0  0  0  0  0  0  0  0  0
    1.8020    8.4114   -0.9857 Cl  0  0  0  0  0  0  0  0  0  0  0  0
    3.9261   10.3479   -2.5242 Cl  0  0  0  0  0  0  0  0  0  0  0  0
   -1.6583    7.5322   -3.4983 C   0  0  0  0  0  0  0  0  0  0  0  0
   -2.2670    8.9069   -4.3745 S   0  0  0  0  0  0  0  0  0  0  0  0
    1.2388    5.5545   -2.2307 C   0  0  0  0  0  0  0  0  0  0  0  0
    1.2064    4.3089   -1.6796 C   0  0  0  0  0  0  0  0  0  0  0  0
   -0.4292    3.7158   -1.4846 S   0  0  0  0  0  0  0  0  0  0  0  0
    2.3760    3.5432   -1.3669 C   0  0  0  0  0  0  0  0  0  0  0  0
    2.5901    2.1984   -1.3907 C   0  0  0  0  0  0  0  0  0  0  0  0
    3.9539    1.8444   -1.1916 C   0  0  0  0  0  0  0  0  0  0  0  0
    4.5477    0.5703   -1.2109 C   0  0  0  0  0  0  0  0  0  0  0  0
    3.7912   -0.6211   -1.5589 C   0  0  0  0  0  0  0  0  0  0  0  0
    2.9234   -0.7158   -3.0617 S   0  0  0  0  0  0  0  0  0  0  0  0
    2.3931   -2.3304   -2.7468 C   0  0  0  0  0  0  0  0  0  0  0  0
    1.5675   -3.0839   -3.7298 C   0  0  0  0  0  0  0  0  0  0  0  0
    2.4494   -3.9338   -4.6474 C   0  0  0  0  0  0  0  0  0  0  0  0
    2.8833   -2.7648   -1.5515 C   0  0  0  0  0  0  0  0  0  0  0  0
    2.5353   -4.3046   -0.8728 Cl  0  0  0  0  0  0  0  0  0  0  0  0
    3.6876   -1.8041   -0.8832 C   0  0  0  0  0  0  0  0  0  0  0  0
    4.3992   -2.1040    0.6414 Cl  0  0  0  0  0  0  0  0  0  0  0  0
    5.9126    0.5017   -0.9494 C   0  0  0  0  0  0  0  0  0  0  0  0
    6.7086    1.6404   -0.6758 C   0  0  0  0  0  0  0  0  0  0  0  0
    6.1208    2.9124   -0.6709 C   0  0  0  0  0  0  0  0  0  0  0  0
    6.8846    4.1166   -0.3883 C   0  0  0  0  0  0  0  0  0  0  0  0
    6.8593    5.4761   -1.4710 S   0  0  0  0  0  0  0  0  0  0  0  0
    7.8861    6.4152   -0.4414 C   0  0  0  0  0  0  0  0  0  0  0  0
    8.2347    7.8193   -0.7911 C   0  0  0  0  0  0  0  0  0  0  0  0
    7.0320    8.7441   -0.5899 C   0  0  0  0  0  0  0  0  0  0  0  0
    8.2166    5.7043    0.6732 C   0  0  0  0  0  0  0  0  0  0  0  0
    7.6543    4.3988    0.7045 C   0  0  0  0  0  0  0  0  0  0  0  0
    7.8661    3.3301    2.0309 Cl  0  0  0  0  0  0  0  0  0  0  0  0
    9.2143    6.3030    1.9354 Cl  0  0  0  0  0  0  0  0  0  0  0  0
    4.7634    2.9805   -0.9528 C   0  0  0  0  0  0  0  0  0  0  0  0
    3.8417    4.4486   -1.0362 S   0  0  0  0  0  0  0  0  0  0  0  0
    8.0823    1.2986   -0.5146 C   0  0  0  0  0  0  0  0  0  0  0  0
    8.3104   -0.0230   -0.6564 C   0  0  0  0  0  0  0  0  0  0  0  0
    6.8855   -0.9407   -0.9934 S   0  0  0  0  0  0  0  0  0  0  0  0
    0.8850  -10.8396   12.5627 H   0  0  0  0  0  0  0  0  0  0  0  0
    2.3785   -8.8821   11.7147 H   0  0  0  0  0  0  0  0  0  0  0  0
    6.7879   -5.4224   11.1942 H   0  0  0  0  0  0  0  0  0  0  0  0
    6.8203   -7.1968   11.1761 H   0  0  0  0  0  0  0  0  0  0  0  0
    7.1570   -5.3982    8.7256 H   0  0  0  0  0  0  0  0  0  0  0  0
    8.4555   -6.2650    9.5521 H   0  0  0  0  0  0  0  0  0  0  0  0
    7.1884   -7.1639    8.7095 H   0  0  0  0  0  0  0  0  0  0  0  0
   -6.1407   -9.8419    7.0878 H   0  0  0  0  0  0  0  0  0  0  0  0
   -5.9835  -11.5655    6.6979 H   0  0  0  0  0  0  0  0  0  0  0  0
   -5.0336  -10.9652    4.4682 H   0  0  0  0  0  0  0  0  0  0  0  0
   -5.1890   -9.2496    4.8603 H   0  0  0  0  0  0  0  0  0  0  0  0
   -6.6347  -10.2516    4.6879 H   0  0  0  0  0  0  0  0  0  0  0  0
   -1.4615   -8.0089    5.7357 H   0  0  0  0  0  0  0  0  0  0  0  0
    1.2782   -4.1976    4.8263 H   0  0  0  0  0  0  0  0  0  0  0  0
    2.9804    1.6716    3.9777 H   0  0  0  0  0  0  0  0  0  0  0  0
    4.5171    0.9103    4.4351 H   0  0  0  0  0  0  0  0  0  0  0  0
    5.1740    0.8200    2.0235 H   0  0  0  0  0  0  0  0  0  0  0  0
    3.6430    1.5764    1.5786 H   0  0  0  0  0  0  0  0  0  0  0  0
    4.8344    2.4781    2.5241 H   0  0  0  0  0  0  0  0  0  0  0  0
   -4.1108   -9.5689   -0.1245 H   0  0  0  0  0  0  0  0  0  0  0  0
   -5.6313   -8.7509   -0.5332 H   0  0  0  0  0  0  0  0  0  0  0  0
   -4.7043   -9.9315   -2.5131 H   0  0  0  0  0  0  0  0  0  0  0  0
   -3.2075   -9.0011   -2.3833 H   0  0  0  0  0  0  0  0  0  0  0  0
   -4.7224   -8.1867   -2.7855 H   0  0  0  0  0  0  0  0  0  0  0  0
   -2.0532   -3.7892   -1.4661 H   0  0  0  0  0  0  0  0  0  0  0  0
   -3.1910   -2.1137   -2.6266 H   0  0  0  0  0  0  0  0  0  0  0  0
   -8.6395   -3.9206   -4.6341 H   0  0  0  0  0  0  0  0  0  0  0  0
   -9.1378   -2.2201   -4.5322 H   0  0  0  0  0  0  0  0  0  0  0  0
   -9.7237   -3.4458   -2.4477 H   0  0  0  0  0  0  0  0  0  0  0  0
   -8.5260   -2.1894   -2.1134 H   0  0  0  0  0  0  0  0  0  0  0  0
   -8.0283   -3.8810   -2.2147 H   0  0  0  0  0  0  0  0  0  0  0  0
    3.1310    4.4607   -4.1078 H   0  0  0  0  0  0  0  0  0  0  0  0
    3.5426    4.5136   -5.8294 H   0  0  0  0  0  0  0  0  0  0  0  0
    4.2753    2.1403   -5.7312 H   0  0  0  0  0  0  0  0  0  0  0  0
    5.1267    3.0842   -4.5031 H   0  0  0  0  0  0  0  0  0  0  0  0
    3.7790    2.0368   -4.0417 H   0  0  0  0  0  0  0  0  0  0  0  0
   -2.6452    3.9777   -5.9930 H   0  0  0  0  0  0  0  0  0  0  0  0
   -9.6601    3.3008   -5.9254 H   0  0  0  0  0  0  0  0  0  0  0  0
   -8.8440    7.3114   -5.8338 H   0  0  0  0  0  0  0  0  0  0  0  0
   -6.7315    8.8739   -6.1876 H   0  0  0  0  0  0  0  0  0  0  0  0
   -4.9466    9.9815   -5.0324 H   0  0  0  0  0  0  0  0  0  0  0  0
   -4.8641    6.5286   -3.5226 H   0  0  0  0  0  0  0  0  0  0  0  0
   -5.5807    0.7712   -2.5920 H   0  0  0  0  0  0  0  0  0  0  0  0
   -6.5211    1.2411   -1.1700 H   0  0  0  0  0  0  0  0  0  0  0  0
   -3.6413    0.1998   -1.1131 H   0  0  0  0  0  0  0  0  0  0  0  0
   -5.0767   -0.7507   -0.7168 H   0  0  0  0  0  0  0  0  0  0  0  0
   -4.6107    0.6130    0.3035 H   0  0  0  0  0  0  0  0  0  0  0  0
    2.3985   10.9913   -6.3896 H   0  0  0  0  0  0  0  0  0  0  0  0
    3.6120   11.3790   -5.1544 H   0  0  0  0  0  0  0  0  0  0  0  0
    3.6064    8.8695   -6.9055 H   0  0  0  0  0  0  0  0  0  0  0  0
    4.8193    9.2614   -5.6821 H   0  0  0  0  0  0  0  0  0  0  0  0
    4.6595   10.2720   -7.1223 H   0  0  0  0  0  0  0  0  0  0  0  0
    2.1570    6.0716   -2.4414 H   0  0  0  0  0  0  0  0  0  0  0  0
    1.8064    1.4843   -1.5670 H   0  0  0  0  0  0  0  0  0  0  0  0
    0.8766   -3.7322   -3.1858 H   0  0  0  0  0  0  0  0  0  0  0  0
    0.9875   -2.3806   -4.3293 H   0  0  0  0  0  0  0  0  0  0  0  0
    3.1399   -3.3008   -5.1996 H   0  0  0  0  0  0  0  0  0  0  0  0
    3.0237   -4.6476   -4.0626 H   0  0  0  0  0  0  0  0  0  0  0  0
    1.8324   -4.4796   -5.3560 H   0  0  0  0  0  0  0  0  0  0  0  0
    9.0618    8.1427   -0.1571 H   0  0  0  0  0  0  0  0  0  0  0  0
    8.5552    7.8665   -1.8340 H   0  0  0  0  0  0  0  0  0  0  0  0
    6.7102    8.7255    0.4483 H   0  0  0  0  0  0  0  0  0  0  0  0
    6.2018    8.4248   -1.2155 H   0  0  0  0  0  0  0  0  0  0  0  0
    7.2962    9.7645   -0.8541 H   0  0  0  0  0  0  0  0  0  0  0  0
    8.8534    2.0198   -0.3168 H   0  0  0  0  0  0  0  0  0  0  0  0
    9.2469   -0.5407   -0.5836 H   0  0  0  0  0  0  0  0  0  0  0  0
  1  2  2  0  0  0  0
  2  3  1  0  0  0  0
  3  4  2  0  0  0  0
  4  5  1  0  0  0  0
  5  6  1  0  0  0  0
  6  7  1  0  0  0  0
  7  8  1  0  0  0  0
  8  9  1  0  0  0  0
  7 10  2  0  0  0  0
 10 11  1  0  0  0  0
 10 12  1  0  0  0  0
 12 13  1  0  0  0  0
  4 14  1  0  0  0  0
 14 15  2  0  0  0  0
 15 16  1  0  0  0  0
 16 17  1  0  0  0  0
 17 18  1  0  0  0  0
 18 19  1  0  0  0  0
 19 20  1  0  0  0  0
 20 21  1  0  0  0  0
 19 22  2  0  0  0  0
 22 23  1  0  0  0  0
 23 24  1  0  0  0  0
 22 25  1  0  0  0  0
 16 26  2  0  0  0  0
 26 27  1  0  0  0  0
 15 28  1  0  0  0  0
 28 29  2  0  0  0  0
 29 30  1  0  0  0  0
 29 31  1  0  0  0  0
 31 32  2  0  0  0  0
 32 33  1  0  0  0  0
 33 34  2  0  0  0  0
 34 35  1  0  0  0  0
 35 36  1  0  0  0  0
 36 37  1  0  0  0  0
 37 38  1  0  0  0  0
 38 39  1  0  0  0  0
 37 40  2  0  0  0  0
 40 41  1  0  0  0  0
 40 42  1  0  0  0  0
 42 43  1  0  0  0  0
 34 44  1  0  0  0  0
 44 45  2  0  0  0  0
 45 46  1  0  0  0  0
 46 47  1  0  0  0  0
 47 48  1  0  0  0  0
 48 49  1  0  0  0  0
 49 50  1  0  0  0  0
 50 51  1  0  0  0  0
 49 52  2  0  0  0  0
 52 53  1  0  0  0  0
 53 54  1  0  0  0  0
 52 55  1  0  0  0  0
 46 56  2  0  0  0  0
 56 57  1  0  0  0  0
 45 58  1  0  0  0  0
 58 59  2  0  0  0  0
 59 60  1  0  0  0  0
 59 61  1  0  0  0  0
 61 62  2  0  0  0  0
 62 63  1  0  0  0  0
 63 64  2  0  0  0  0
 64 65  1  0  0  0  0
 65 66  1  0  0  0  0
 66 67  1  0  0  0  0
 67 68  1  0  0  0  0
 68 69  1  0  0  0  0
 67 70  2  0  0  0  0
 70 71  1  0  0  0  0
 70 72  1  0  0  0  0
 72 73  1  0  0  0  0
 64 74  1  0  0  0  0
 74 75  2  0  0  0  0
 75 76  1  0  0  0  0
 76 77  1  0  0  0  0
 77 78  1  0  0  0  0
 78 79  1  0  0  0  0
 79 80  1  0  0  0  0
 80 81  1  0  0  0  0
 79 82  2  0  0  0  0
 82 83  1  0  0  0  0
 83 84  1  0  0  0  0
 82 85  1  0  0  0  0
 76 86  2  0  0  0  0
 86 87  1  0  0  0  0
 75 88  1  0  0  0  0
 88 89  2  0  0  0  0
 89 90  1  0  0  0  0
 89 91  1  0  0  0  0
 91 92  1  0  0  0  0
 92 93  1  0  0  0  0
 93 94  2  0  0  0  0
 94 95  1  0  0  0  0
 95 96  1  0  0  0  0
 96 97  2  0  0  0  0
 97 98  1  0  0  0  0
 98 99  2  0  0  0  0
 93100  1  0  0  0  0
100101  2  0  0  0  0
101102  1  0  0  0  0
102103  2  0  0  0  0
103104  1  0  0  0  0
104105  2  0  0  0  0
105106  1  0  0  0  0
106107  1  0  0  0  0
107108  1  0  0  0  0
108109  1  0  0  0  0
109110  1  0  0  0  0
108111  2  0  0  0  0
111112  1  0  0  0  0
111113  1  0  0  0  0
113114  1  0  0  0  0
105115  1  0  0  0  0
115116  2  0  0  0  0
116117  1  0  0  0  0
117118  1  0  0  0  0
118119  1  0  0  0  0
119120  1  0  0  0  0
120121  1  0  0  0  0
121122  1  0  0  0  0
120123  2  0  0  0  0
123124  1  0  0  0  0
124125  1  0  0  0  0
123126  1  0  0  0  0
117127  2  0  0  0  0
127128  1  0  0  0  0
116129  1  0  0  0  0
129130  2  0  0  0  0
130131  1  0  0  0  0
130132  1  0  0  0  0
132133  2  0  0  0  0
133134  1  0  0  0  0
134135  2  0  0  0  0
135136  1  0  0  0  0
136137  1  0  0  0  0
137138  1  0  0  0  0
138139  1  0  0  0  0
139140  1  0  0  0  0
138141  2  0  0  0  0
141142  1  0  0  0  0
141143  1  0  0  0  0
143144  1  0  0  0  0
135145  1  0  0  0  0
145146  2  0  0  0  0
146147  1  0  0  0  0
147148  1  0  0  0  0
148149  1  0  0  0  0
149150  1  0  0  0  0
150151  1  0  0  0  0
151152  1  0  0  0  0
150153  2  0  0  0  0
153154  1  0  0  0  0
154155  1  0  0  0  0
153156  1  0  0  0  0
147157  2  0  0  0  0
157158  1  0  0  0  0
146159  1  0  0  0  0
159160  2  0  0  0  0
160161  1  0  0  0  0
 27  1  1  0  0  0  0
 57 31  1  0  0  0  0
 87 61  1  0  0  0  0
 95 91  2  0  0  0  0
128102  1  0  0  0  0
158132  1  0  0  0  0
 26  3  1  0  0  0  0
 56 33  1  0  0  0  0
 86 63  1  0  0  0  0
 99 94  1  0  0  0  0
127104  1  0  0  0  0
157134  1  0  0  0  0
 12  5  2  0  0  0  0
 30 14  1  0  0  0  0
 42 35  2  0  0  0  0
 60 44  1  0  0  0  0
 72 65  2  0  0  0  0
 90 74  1  0  0  0  0
113106  2  0  0  0  0
131115  1  0  0  0  0
143136  2  0  0  0  0
161145  1  0  0  0  0
 23 17  2  0  0  0  0
 53 47  2  0  0  0  0
 83 77  2  0  0  0  0
124118  2  0  0  0  0
154148  2  0  0  0  0
  1162  1  0  0  0  0
  2163  1  0  0  0  0
  8164  1  0  0  0  0
  8165  1  0  0  0  0
  9166  1  0  0  0  0
  9167  1  0  0  0  0
  9168  1  0  0  0  0
 20169  1  0  0  0  0
 20170  1  0  0  0  0
 21171  1  0  0  0  0
 21172  1  0  0  0  0
 21173  1  0  0  0  0
 28174  1  0  0  0  0
 32175  1  0  0  0  0
 38176  1  0  0  0  0
 38177  1  0  0  0  0
 39178  1  0  0  0  0
 39179  1  0  0  0  0
 39180  1  0  0  0  0
 50181  1  0  0  0  0
 50182  1  0  0  0  0
 51183  1  0  0  0  0
 51184  1  0  0  0  0
 51185  1  0  0  0  0
 58186  1  0  0  0  0
 62187  1  0  0  0  0
 68188  1  0  0  0  0
 68189  1  0  0  0  0
 69190  1  0  0  0  0
 69191  1  0  0  0  0
 69192  1  0  0  0  0
 80193  1  0  0  0  0
 80194  1  0  0  0  0
 81195  1  0  0  0  0
 81196  1  0  0  0  0
 81197  1  0  0  0  0
 88198  1  0  0  0  0
 97199  1  0  0  0  0
 99200  1  0  0  0  0
100201  1  0  0  0  0
101202  1  0  0  0  0
103203  1  0  0  0  0
109204  1  0  0  0  0
109205  1  0  0  0  0
110206  1  0  0  0  0
110207  1  0  0  0  0
110208  1  0  0  0  0
121209  1  0  0  0  0
121210  1  0  0  0  0
122211  1  0  0  0  0
122212  1  0  0  0  0
122213  1  0  0  0  0
129214  1  0  0  0  0
133215  1  0  0  0  0
139216  1  0  0  0  0
139217  1  0  0  0  0
140218  1  0  0  0  0
140219  1  0  0  0  0
140220  1  0  0  0  0
151221  1  0  0  0  0
151222  1  0  0  0  0
152223  1  0  0  0  0
152224  1  0  0  0  0
152225  1  0  0  0  0
159226  1  0  0  0  0
160227  1  0  0  0  0
M  END
