218

C          1.90980      -10.01000        2.82410
C          2.91930       -9.17370        2.50990
C          2.47460       -7.84600        2.23560
C          3.24620       -6.71950        1.91970
C          4.71300       -6.77130        1.90180
C          5.43700       -6.28830        0.81700
C          6.81800       -6.33510        0.79810
C          7.52610       -6.86250        1.87210
S          9.27600       -6.98960        1.98090
C          9.85810       -6.19030        0.43900
C         11.37530       -6.17900        0.44210
C          6.78590       -7.33840        2.95720
F          7.44100       -7.85490        4.01700
C          5.41130       -7.30220        2.98560
C          2.55400       -5.54650        1.65060
C          1.14050       -5.44220        1.71970
C          0.37460       -6.55270        2.11280
C         -1.06210       -6.48360        2.40590
C         -1.95510       -7.42580        1.89580
C         -3.25990       -7.45800        2.32960
C         -3.73840       -6.56330        3.29130
S         -5.40860       -6.81750        3.79080
C         -5.62670       -5.85990        5.33760
C         -6.95440       -6.25150        5.95560
C         -2.85420       -5.58500        3.73670
C         -1.54070       -5.54370        3.31120
F         -3.23490       -4.63460        4.62250
C          1.06600       -7.73770        2.32800
S          0.35200       -9.25820        2.80520
C          0.68820       -4.14740        1.35330
C          1.70730       -3.27890        1.08610
S          3.28680       -4.01900        1.25930
C          1.69930       -1.89030        0.73140
N          0.82740       -1.29110       -0.14780
C         -0.12050       -1.97400       -0.98740
C          1.14780        0.07080       -0.34640
O          0.55330        0.78610       -1.13120
C          2.27400        0.30650        0.52120
C          2.59300       -0.92880        1.16010
C          3.74040       -0.71390        2.00520
O          4.40420       -1.45020        2.70090
N          4.02730        0.66540        1.84970
C          5.23500        1.20240        2.41540
C          3.16960        1.27110        0.96120
C          3.27660        2.62270        0.49150
C          3.71690        3.71750        1.14350
C          3.92220        3.89610        2.55470
N          3.06660        3.44740        3.52900
C          1.82140        2.75940        3.33610
C          3.48720        3.83750        4.82080
O          2.89910        3.50210        5.82970
C          4.68790        4.60090        4.58840
C          4.93680        4.59840        3.18290
C          6.21680        5.22570        2.95070
O          6.85560        5.44330        1.94300
N          6.65970        5.57940        4.24440
C          7.89390        6.28170        4.46120
C          5.74050        5.25480        5.21460
C          5.92570        5.54480        6.60600
C          4.91000        5.84090        7.44750
C          3.57790        6.14160        7.00980
N          3.29650        6.91170        5.89990
C          4.17220        7.84300        5.24230
C          1.94800        6.80110        5.51700
O          1.47700        7.36380        4.54990
C          1.37860        5.93130        6.51600
C          2.38620        5.60960        7.46800
C          1.84000        4.58770        8.34860
O          2.26400        4.07000        9.35460
N          0.56720        4.30540        7.80640
C         -0.27050        3.29380        8.38680
C          0.32310        5.04340        6.67480
C         -0.58870        4.82400        5.61270
C         -1.36410        3.74750        5.33400
C         -1.78200        3.47450        4.00030
C         -2.42750        2.35880        3.53770
C         -2.43950        2.25340        2.12640
C         -2.89430        1.18490        1.34370
C         -3.57910       -0.01220        1.85090
C         -4.83840        0.02990        2.44030
C         -5.54620       -1.13720        2.64110
C         -5.02600       -2.37830        2.27640
S         -6.07420       -3.78920        2.43320
C         -5.70090       -4.76860        0.93280
C         -5.90000       -3.97330       -0.34140
C         -3.71780       -2.40960        1.80490
F         -3.09780       -3.57620        1.50830
C         -3.00780       -1.25070        1.58230
C         -2.65750        1.26160       -0.01900
C         -1.98580        2.33950       -0.64070
C         -1.51250        3.40530        0.14320
C         -0.70160        4.47240       -0.45270
C          0.37560        4.13750       -1.27160
C          1.15390        5.11680       -1.85530
C          0.87160        6.46450       -1.65680
S          1.77980        7.79720       -2.36880
C          2.51220        7.05950       -3.87390
C          1.45930        6.62610       -4.87500
C         -0.19170        6.78260       -0.81050
C         -0.96830        5.81670       -0.20820
F         -0.48730        8.07690       -0.58950
C         -1.77570        3.34350        1.50280
S         -1.21870        4.49650        2.68220
C         -1.88410        2.15900       -2.04170
C         -2.42610        0.98750       -2.47930
S         -3.13720        0.05560       -1.17970
C         -2.41860        0.45810       -3.80490
C         -1.66860        0.87590       -4.86310
C         -1.86180        0.10070       -6.03570
C         -1.24150        0.25610       -7.28520
C         -0.29520        1.35350       -7.52240
C         -0.63860        2.67100       -7.22040
C          0.26870        3.69280       -7.40000
C          1.54880        3.44580       -7.89230
S          2.62430        4.83710       -8.09910
C          4.25540        4.22110       -7.53650
C          4.21380        3.72570       -6.10500
C          1.86210        2.13370       -8.23240
F          3.06850        1.82390       -8.75500
C          0.96870        1.09850       -8.04280
C         -1.56680       -0.67490       -8.26150
C         -2.50260       -1.71860       -8.05710
C         -3.13710       -1.86290       -6.81450
C         -4.14890       -2.89760       -6.56590
C         -5.22690       -3.07170       -7.43280
C         -6.20110       -4.00820       -7.16210
C         -6.14050       -4.81480       -6.02650
S         -7.42760       -6.00960       -5.82030
C         -7.74730       -6.03650       -4.01770
C         -8.13500       -4.67110       -3.48710
C         -5.04560       -4.64770       -5.18490
C         -4.07170       -3.70250       -5.43410
F         -4.89310       -5.41490       -4.08120
C         -2.78030       -0.95710       -5.82580
S         -3.40860       -0.93140       -4.19930
C         -2.64260       -2.53160       -9.22160
C         -1.88210       -2.10960      -10.25150
S         -0.93600       -0.70710       -9.88820
H          1.97050      -11.05260        3.06870
H          3.94960       -9.47460        2.45610
H          4.91440       -5.88820       -0.03810
H          7.33890       -5.95780       -0.06620
H          9.47570       -6.76460       -0.40520
H          9.46080       -5.17550        0.41730
H         11.74350       -5.70750       -0.46660
H         11.74960       -5.62540        1.29990
H         11.76350       -7.19360        0.49160
H          4.89300       -7.66210        3.86050
H         -1.62110       -8.13680        1.15640
H         -3.94340       -8.20010        1.94670
H         -5.61110       -4.80080        5.08610
H         -4.79520       -6.10470        5.99700
H         -7.77080       -6.01810        5.27590
H         -6.97840       -7.31700        6.17370
H         -7.10300       -5.70080        6.88170
H         -0.88970       -4.78810        3.72370
H         -0.35400       -3.88580        1.32230
H         -0.43940       -1.26490       -1.75190
H          0.34440       -2.84090       -1.45990
H         -0.99630       -2.30830       -0.43060
H          5.04880        1.68430        3.37720
H          5.90830        0.36030        2.58630
H          5.69700        1.91610        1.73450
H          2.99790        2.73080       -0.54910
H          3.92370        4.60850        0.56350
H          1.19490        2.97290        4.20310
H          1.96530        1.67790        3.27420
H          1.33140        3.10990        2.42810
H          7.71890        7.23700        4.95980
H          8.58420        5.68360        5.05990
H          8.33470        6.45920        3.48000
H          6.93280        5.45810        6.99150
H          5.07240        5.83090        8.51620
H          3.56110        8.67920        4.89840
H          4.65370        7.40080        4.36760
H          4.93150        8.19950        5.93690
H          0.11640        3.09630        9.38750
H         -1.30230        3.64040        8.45360
H         -0.22510        2.36610        7.81070
H         -0.46740        5.56440        4.82850
H         -1.58920        2.98680        6.06650
H         -2.84290        1.60470        4.18310
H         -5.28400        0.98210        2.68480
H         -6.54430       -1.10610        3.04990
H         -4.69140       -5.16750        1.01090
H         -6.40790       -5.59540        1.00000
H         -6.91150       -3.57530       -0.39180
H         -5.73140       -4.61940       -1.20040
H         -5.20070       -3.14070       -0.40040
H         -2.00380       -1.31040        1.19360
H          0.60770        3.09480       -1.42910
H          1.99000        4.82490       -2.47140
H          3.17240        6.24360       -3.58050
H          3.12090        7.86870       -4.27690
H          0.80810        7.46280       -5.11630
H          1.93430        6.28350       -5.79260
H          0.84930        5.81870       -4.47410
H         -1.79090        6.12190        0.41900
H         -1.42880        2.87600       -2.69840
H         -0.96990        1.68910       -4.79940
H         -1.62860        2.89250       -6.85170
H          0.00110        4.71020       -7.15960
H          4.59960        3.45230       -8.22420
H          4.89870        5.09580       -7.63160
H          3.55110        2.86720       -6.00980
H          3.86110        4.51120       -5.44010
H          5.21220        3.42540       -5.79340
H          1.27590        0.09660       -8.29870
H         -5.31750       -2.44250       -8.30500
H         -7.04070       -4.13040       -7.82860
H         -8.57300       -6.74230       -3.92580
H         -6.87680       -6.44310       -3.50770
H         -8.98160       -4.27290       -4.04240
H         -8.41260       -4.75340       -2.43830
H         -7.30650       -3.96990       -3.56980
H         -3.24190       -3.62650       -4.74920
H         -3.27610       -3.39880       -9.26370
H         -1.80100       -2.53980      -11.23060
