
  xtb     03022222393D
 energy: -462.988404180235 gnorm: 0.000603145644 xtb: 6.4.1 (unknown)
234260  0     0  0            999 V2000
   11.9427  -16.6765    3.1452 C   0  0  0  0  0  0  0  0  0  0  0  0
   10.8881  -16.2193    3.8496 C   0  0  0  0  0  0  0  0  0  0  0  0
   10.3492  -15.0104    3.3190 C   0  0  0  0  0  0  0  0  0  0  0  0
    9.2452  -14.2745    3.7806 C   0  0  0  0  0  0  0  0  0  0  0  0
    8.4161  -14.7585    4.8722 C   0  0  0  0  0  0  0  0  0  0  0  0
    8.0596  -13.7685    6.2555 S   0  0  0  0  0  0  0  0  0  0  0  0
    7.0835  -14.9988    6.9809 C   0  0  0  0  0  0  0  0  0  0  0  0
    6.4613  -14.8032    8.3193 C   0  0  0  0  0  0  0  0  0  0  0  0
    7.4304  -15.1952    9.4372 C   0  0  0  0  0  0  0  0  0  0  0  0
    7.0486  -16.1069    6.1877 C   0  0  0  0  0  0  0  0  0  0  0  0
    6.1769  -17.5337    6.5745 Cl  0  0  0  0  0  0  0  0  0  0  0  0
    7.7992  -15.9733    4.9893 C   0  0  0  0  0  0  0  0  0  0  0  0
    7.8445  -17.1962    3.7853 Cl  0  0  0  0  0  0  0  0  0  0  0  0
    8.9711  -13.0761    3.1342 C   0  0  0  0  0  0  0  0  0  0  0  0
    9.7253  -12.6225    2.0266 C   0  0  0  0  0  0  0  0  0  0  0  0
   10.7763  -13.3980    1.5094 C   0  0  0  0  0  0  0  0  0  0  0  0
   11.4671  -12.9653    0.3065 C   0  0  0  0  0  0  0  0  0  0  0  0
   13.1964  -12.8086    0.2352 S   0  0  0  0  0  0  0  0  0  0  0  0
   13.1542  -12.2071   -1.3866 C   0  0  0  0  0  0  0  0  0  0  0  0
   14.3929  -11.7753   -2.0906 C   0  0  0  0  0  0  0  0  0  0  0  0
   14.6176  -10.2703   -1.9221 C   0  0  0  0  0  0  0  0  0  0  0  0
   11.8682  -12.1404   -1.8345 C   0  0  0  0  0  0  0  0  0  0  0  0
   10.9101  -12.5734   -0.8816 C   0  0  0  0  0  0  0  0  0  0  0  0
    9.2330  -12.6604   -1.2445 Cl  0  0  0  0  0  0  0  0  0  0  0  0
   11.4281  -11.5858   -3.3958 Cl  0  0  0  0  0  0  0  0  0  0  0  0
   11.0833  -14.5671    2.1921 C   0  0  0  0  0  0  0  0  0  0  0  0
   12.3628  -15.6784    1.7953 S   0  0  0  0  0  0  0  0  0  0  0  0
    9.2748  -11.3660    1.5608 C   0  0  0  0  0  0  0  0  0  0  0  0
    8.1829  -10.8955    2.2282 C   0  0  0  0  0  0  0  0  0  0  0  0
    7.6819  -11.9672    3.5176 S   0  0  0  0  0  0  0  0  0  0  0  0
    7.4934   -9.6893    1.8967 C   0  0  0  0  0  0  0  0  0  0  0  0
    7.6221   -9.0332    0.7075 C   0  0  0  0  0  0  0  0  0  0  0  0
    6.8638   -7.8438    0.6293 C   0  0  0  0  0  0  0  0  0  0  0  0
    6.8155   -6.9338   -0.4433 C   0  0  0  0  0  0  0  0  0  0  0  0
    7.6908   -7.1188   -1.5873 C   0  0  0  0  0  0  0  0  0  0  0  0
    7.0825   -7.1438   -3.2156 S   0  0  0  0  0  0  0  0  0  0  0  0
    8.6433   -7.4884   -3.8769 C   0  0  0  0  0  0  0  0  0  0  0  0
    8.8355   -7.7250   -5.3340 C   0  0  0  0  0  0  0  0  0  0  0  0
    8.7117   -9.2152   -5.6626 C   0  0  0  0  0  0  0  0  0  0  0  0
    9.5730   -7.5705   -2.8828 C   0  0  0  0  0  0  0  0  0  0  0  0
   11.2324   -7.9065   -3.1516 Cl  0  0  0  0  0  0  0  0  0  0  0  0
    9.0398   -7.3556   -1.5855 C   0  0  0  0  0  0  0  0  0  0  0  0
   10.0317   -7.3199   -0.1832 Cl  0  0  0  0  0  0  0  0  0  0  0  0
    5.9016   -5.8952   -0.3387 C   0  0  0  0  0  0  0  0  0  0  0  0
    5.0964   -5.7152    0.8125 C   0  0  0  0  0  0  0  0  0  0  0  0
    5.2201   -6.5656    1.9270 C   0  0  0  0  0  0  0  0  0  0  0  0
    4.4479   -6.2976    3.1274 C   0  0  0  0  0  0  0  0  0  0  0  0
    3.4585   -7.5149    3.8763 S   0  0  0  0  0  0  0  0  0  0  0  0
    2.8639   -6.4101    5.0678 C   0  0  0  0  0  0  0  0  0  0  0  0
    1.8337   -6.8207    6.0606 C   0  0  0  0  0  0  0  0  0  0  0  0
    0.4253   -6.5844    5.5085 C   0  0  0  0  0  0  0  0  0  0  0  0
    3.4136   -5.1755    4.8873 C   0  0  0  0  0  0  0  0  0  0  0  0
    4.3157   -5.1085    3.7939 C   0  0  0  0  0  0  0  0  0  0  0  0
    5.1988   -3.6825    3.4221 Cl  0  0  0  0  0  0  0  0  0  0  0  0
    3.0596   -3.8173    5.8716 Cl  0  0  0  0  0  0  0  0  0  0  0  0
    6.0887   -7.6389    1.7973 C   0  0  0  0  0  0  0  0  0  0  0  0
    6.3858   -8.8809    2.9828 S   0  0  0  0  0  0  0  0  0  0  0  0
    4.1984   -4.6366    0.6603 C   0  0  0  0  0  0  0  0  0  0  0  0
    4.3346   -3.9697   -0.5227 C   0  0  0  0  0  0  0  0  0  0  0  0
    5.5759   -4.6713   -1.5366 S   0  0  0  0  0  0  0  0  0  0  0  0
    3.5370   -2.8458   -0.8965 C   0  0  0  0  0  0  0  0  0  0  0  0
    2.7685   -2.1309   -0.0237 C   0  0  0  0  0  0  0  0  0  0  0  0
    1.9618   -1.1552   -0.6466 C   0  0  0  0  0  0  0  0  0  0  0  0
    1.0372   -0.2962   -0.0283 C   0  0  0  0  0  0  0  0  0  0  0  0
    0.7556   -0.4239    1.3912 C   0  0  0  0  0  0  0  0  0  0  0  0
    0.8272    0.9397    2.4673 S   0  0  0  0  0  0  0  0  0  0  0  0
    0.4564   -0.0315    3.8502 C   0  0  0  0  0  0  0  0  0  0  0  0
    0.4275    0.5452    5.2225 C   0  0  0  0  0  0  0  0  0  0  0  0
    1.7943    0.4054    5.8982 C   0  0  0  0  0  0  0  0  0  0  0  0
    0.2859   -1.3334    3.4833 C   0  0  0  0  0  0  0  0  0  0  0  0
   -0.0895   -2.5933    4.5824 Cl  0  0  0  0  0  0  0  0  0  0  0  0
    0.4479   -1.5596    2.0915 C   0  0  0  0  0  0  0  0  0  0  0  0
    0.1913   -3.1034    1.3822 Cl  0  0  0  0  0  0  0  0  0  0  0  0
    0.4154    0.6383   -0.8420 C   0  0  0  0  0  0  0  0  0  0  0  0
    0.6524    0.7212   -2.2371 C   0  0  0  0  0  0  0  0  0  0  0  0
    1.5417   -0.1741   -2.8615 C   0  0  0  0  0  0  0  0  0  0  0  0
    1.7770   -0.1225   -4.2949 C   0  0  0  0  0  0  0  0  0  0  0  0
    2.2535    1.3579   -5.0761 S   0  0  0  0  0  0  0  0  0  0  0  0
    2.3321    0.6066   -6.6319 C   0  0  0  0  0  0  0  0  0  0  0  0
    2.7575    1.3655   -7.8402 C   0  0  0  0  0  0  0  0  0  0  0  0
    4.2743    1.2865   -8.0300 C   0  0  0  0  0  0  0  0  0  0  0  0
    2.0145   -0.7152   -6.5346 C   0  0  0  0  0  0  0  0  0  0  0  0
    1.6964   -1.1322   -5.2139 C   0  0  0  0  0  0  0  0  0  0  0  0
    1.1754   -2.7251   -4.8580 Cl  0  0  0  0  0  0  0  0  0  0  0  0
    1.9798   -1.7886   -7.8722 Cl  0  0  0  0  0  0  0  0  0  0  0  0
    2.1796   -1.1005   -2.0455 C   0  0  0  0  0  0  0  0  0  0  0  0
    3.3537   -2.2886   -2.5430 S   0  0  0  0  0  0  0  0  0  0  0  0
   -0.1496    1.7190   -2.8436 C   0  0  0  0  0  0  0  0  0  0  0  0
   -0.9640    2.3722   -1.9669 C   0  0  0  0  0  0  0  0  0  0  0  0
   -0.7798    1.7911   -0.3244 S   0  0  0  0  0  0  0  0  0  0  0  0
   -1.9073    3.4009   -2.2516 C   0  0  0  0  0  0  0  0  0  0  0  0
   -2.7982    3.9669   -1.3891 C   0  0  0  0  0  0  0  0  0  0  0  0
   -3.6296    4.9427   -1.9905 C   0  0  0  0  0  0  0  0  0  0  0  0
   -4.6419    5.7104   -1.3842 C   0  0  0  0  0  0  0  0  0  0  0  0
   -4.8029    5.7345    0.0580 C   0  0  0  0  0  0  0  0  0  0  0  0
   -3.3728    5.8956    1.0515 S   0  0  0  0  0  0  0  0  0  0  0  0
   -4.2914    6.1127    2.4971 C   0  0  0  0  0  0  0  0  0  0  0  0
   -3.6235    6.2899    3.8149 C   0  0  0  0  0  0  0  0  0  0  0  0
   -3.0688    4.9607    4.3324 C   0  0  0  0  0  0  0  0  0  0  0  0
   -5.6219    6.0351    2.2191 C   0  0  0  0  0  0  0  0  0  0  0  0
   -6.8489    6.2422    3.3965 Cl  0  0  0  0  0  0  0  0  0  0  0  0
   -5.9222    5.8110    0.8454 C   0  0  0  0  0  0  0  0  0  0  0  0
   -7.5359    5.5826    0.3082 Cl  0  0  0  0  0  0  0  0  0  0  0  0
   -5.3750    6.5465   -2.2269 C   0  0  0  0  0  0  0  0  0  0  0  0
   -5.0736    6.7143   -3.6038 C   0  0  0  0  0  0  0  0  0  0  0  0
   -4.0101    6.0007   -4.1843 C   0  0  0  0  0  0  0  0  0  0  0  0
   -3.6102    6.2242   -5.5627 C   0  0  0  0  0  0  0  0  0  0  0  0
   -3.4127    4.9061   -6.6780 S   0  0  0  0  0  0  0  0  0  0  0  0
   -2.9386    5.9625   -7.9642 C   0  0  0  0  0  0  0  0  0  0  0  0
   -2.5478    5.4208   -9.2943 C   0  0  0  0  0  0  0  0  0  0  0  0
   -1.1411    4.8196   -9.2448 C   0  0  0  0  0  0  0  0  0  0  0  0
   -2.9295    7.2569   -7.5368 C   0  0  0  0  0  0  0  0  0  0  0  0
   -3.3141    7.4096   -6.1779 C   0  0  0  0  0  0  0  0  0  0  0  0
   -3.3082    8.9352   -5.3897 Cl  0  0  0  0  0  0  0  0  0  0  0  0
   -2.5013    8.5944   -8.5257 Cl  0  0  0  0  0  0  0  0  0  0  0  0
   -3.3459    5.0936   -3.3702 C   0  0  0  0  0  0  0  0  0  0  0  0
   -2.0368    4.0593   -3.8691 S   0  0  0  0  0  0  0  0  0  0  0  0
   -5.9436    7.6408   -4.2343 C   0  0  0  0  0  0  0  0  0  0  0  0
   -6.8673    8.1662   -3.3823 C   0  0  0  0  0  0  0  0  0  0  0  0
   -6.7025    7.5514   -1.7573 S   0  0  0  0  0  0  0  0  0  0  0  0
   -7.9499    9.0903   -3.5566 C   0  0  0  0  0  0  0  0  0  0  0  0
   -7.9409   10.2245   -4.3251 N   0  0  0  0  0  0  0  0  0  0  0  0
   -6.9080   10.6254   -5.2389 C   0  0  0  0  0  0  0  0  0  0  0  0
   -9.0501   11.0581   -4.0352 C   0  0  0  0  0  0  0  0  0  0  0  0
   -9.2295   12.1296   -4.5677 O   0  0  0  0  0  0  0  0  0  0  0  0
   -9.8030   10.3128   -3.0482 C   0  0  0  0  0  0  0  0  0  0  0  0
   -9.1143    9.0763   -2.8201 C   0  0  0  0  0  0  0  0  0  0  0  0
   -9.8177    8.3404   -1.7987 C   0  0  0  0  0  0  0  0  0  0  0  0
   -9.6788    7.2301   -1.3293 O   0  0  0  0  0  0  0  0  0  0  0  0
  -10.8426    9.2221   -1.4055 N   0  0  0  0  0  0  0  0  0  0  0  0
  -11.7853    8.8688   -0.3804 C   0  0  0  0  0  0  0  0  0  0  0  0
  -10.7914   10.4094   -2.0956 C   0  0  0  0  0  0  0  0  0  0  0  0
  -11.5489   11.5583   -1.6240 C   0  0  0  0  0  0  0  0  0  0  0  0
  -11.3074   12.0659   -0.4082 C   0  0  0  0  0  0  0  0  0  0  0  0
  -10.2212   11.6425    0.4494 C   0  0  0  0  0  0  0  0  0  0  0  0
  -10.1774   11.6540    1.8103 C   0  0  0  0  0  0  0  0  0  0  0  0
   -8.9401   11.2059    2.3457 C   0  0  0  0  0  0  0  0  0  0  0  0
   -8.6020   11.0084    3.6922 C   0  0  0  0  0  0  0  0  0  0  0  0
   -9.5619   11.2294    4.7617 C   0  0  0  0  0  0  0  0  0  0  0  0
  -11.1042   10.4242    4.7683 S   0  0  0  0  0  0  0  0  0  0  0  0
  -11.5608   11.1386    6.2771 C   0  0  0  0  0  0  0  0  0  0  0  0
  -12.8540   10.7998    6.9318 C   0  0  0  0  0  0  0  0  0  0  0  0
  -12.7418    9.4916    7.7188 C   0  0  0  0  0  0  0  0  0  0  0  0
  -10.5653   11.9479    6.7365 C   0  0  0  0  0  0  0  0  0  0  0  0
  -10.6522   12.8336    8.2033 Cl  0  0  0  0  0  0  0  0  0  0  0  0
   -9.4325   12.0043    5.8800 C   0  0  0  0  0  0  0  0  0  0  0  0
   -8.0877   13.0172    6.1996 Cl  0  0  0  0  0  0  0  0  0  0  0  0
   -7.3170   10.5490    3.9554 C   0  0  0  0  0  0  0  0  0  0  0  0
   -6.3465   10.3259    2.9479 C   0  0  0  0  0  0  0  0  0  0  0  0
   -6.6746   10.5415    1.5954 C   0  0  0  0  0  0  0  0  0  0  0  0
   -5.7111   10.3328    0.5285 C   0  0  0  0  0  0  0  0  0  0  0  0
   -4.6363    8.9612    0.5532 S   0  0  0  0  0  0  0  0  0  0  0  0
   -3.9032    9.3781   -0.9538 C   0  0  0  0  0  0  0  0  0  0  0  0
   -2.7573    8.6140   -1.5188 C   0  0  0  0  0  0  0  0  0  0  0  0
   -1.4274    9.2740   -1.1467 C   0  0  0  0  0  0  0  0  0  0  0  0
   -4.4658   10.5207   -1.4367 C   0  0  0  0  0  0  0  0  0  0  0  0
   -5.4774   11.0711   -0.6049 C   0  0  0  0  0  0  0  0  0  0  0  0
   -6.1755   12.5925   -0.9776 Cl  0  0  0  0  0  0  0  0  0  0  0  0
   -3.9984   11.2484   -2.9179 Cl  0  0  0  0  0  0  0  0  0  0  0  0
   -7.9853   10.9425    1.3324 C   0  0  0  0  0  0  0  0  0  0  0  0
   -8.6956   11.1218   -0.2394 S   0  0  0  0  0  0  0  0  0  0  0  0
   -5.1160    9.8787    3.5136 C   0  0  0  0  0  0  0  0  0  0  0  0
   -5.1735    9.7284    4.8528 C   0  0  0  0  0  0  0  0  0  0  0  0
   -6.7060   10.1384    5.5316 S   0  0  0  0  0  0  0  0  0  0  0  0
   12.5258  -17.5574    3.3297 H   0  0  0  0  0  0  0  0  0  0  0  0
   10.5019  -16.7039    4.7271 H   0  0  0  0  0  0  0  0  0  0  0  0
    6.1761  -13.7564    8.4353 H   0  0  0  0  0  0  0  0  0  0  0  0
    5.5636  -15.4211    8.3817 H   0  0  0  0  0  0  0  0  0  0  0  0
    6.9612  -15.0482   10.4062 H   0  0  0  0  0  0  0  0  0  0  0  0
    8.3295  -14.5857    9.3878 H   0  0  0  0  0  0  0  0  0  0  0  0
    7.7125  -16.2406    9.3419 H   0  0  0  0  0  0  0  0  0  0  0  0
   15.2467  -12.3214   -1.6869 H   0  0  0  0  0  0  0  0  0  0  0  0
   14.2962  -12.0103   -3.1528 H   0  0  0  0  0  0  0  0  0  0  0  0
   13.7758   -9.7152   -2.3280 H   0  0  0  0  0  0  0  0  0  0  0  0
   14.7237  -10.0193   -0.8694 H   0  0  0  0  0  0  0  0  0  0  0  0
   15.5196   -9.9668   -2.4466 H   0  0  0  0  0  0  0  0  0  0  0  0
    9.7655  -10.8162    0.7806 H   0  0  0  0  0  0  0  0  0  0  0  0
    8.2086   -9.4130   -0.1069 H   0  0  0  0  0  0  0  0  0  0  0  0
    9.8278   -7.3711   -5.6218 H   0  0  0  0  0  0  0  0  0  0  0  0
    8.0863   -7.1630   -5.8935 H   0  0  0  0  0  0  0  0  0  0  0  0
    8.8606   -9.3763   -6.7268 H   0  0  0  0  0  0  0  0  0  0  0  0
    9.4589   -9.7854   -5.1166 H   0  0  0  0  0  0  0  0  0  0  0  0
    7.7258   -9.5821   -5.3877 H   0  0  0  0  0  0  0  0  0  0  0  0
    1.9607   -7.8780    6.2982 H   0  0  0  0  0  0  0  0  0  0  0  0
    1.9694   -6.2364    6.9730 H   0  0  0  0  0  0  0  0  0  0  0  0
   -0.3186   -6.8811    6.2428 H   0  0  0  0  0  0  0  0  0  0  0  0
    0.2833   -5.5323    5.2751 H   0  0  0  0  0  0  0  0  0  0  0  0
    0.2730   -7.1647    4.6016 H   0  0  0  0  0  0  0  0  0  0  0  0
    3.4437   -4.3945    1.3835 H   0  0  0  0  0  0  0  0  0  0  0  0
    2.7986   -2.2792    1.0384 H   0  0  0  0  0  0  0  0  0  0  0  0
    0.1516    1.5991    5.1661 H   0  0  0  0  0  0  0  0  0  0  0  0
   -0.3242    0.0163    5.8123 H   0  0  0  0  0  0  0  0  0  0  0  0
    2.5542    0.9322    5.3260 H   0  0  0  0  0  0  0  0  0  0  0  0
    1.7596    0.8226    6.9009 H   0  0  0  0  0  0  0  0  0  0  0  0
    2.0758   -0.6422    5.9670 H   0  0  0  0  0  0  0  0  0  0  0  0
    2.2595    0.9403   -8.7140 H   0  0  0  0  0  0  0  0  0  0  0  0
    2.4559    2.4091   -7.7372 H   0  0  0  0  0  0  0  0  0  0  0  0
    4.5853    0.2517   -8.1469 H   0  0  0  0  0  0  0  0  0  0  0  0
    4.7853    1.7080   -7.1677 H   0  0  0  0  0  0  0  0  0  0  0  0
    4.5687    1.8415   -8.9165 H   0  0  0  0  0  0  0  0  0  0  0  0
   -0.1416    1.9404   -3.8954 H   0  0  0  0  0  0  0  0  0  0  0  0
   -2.8702    3.6685   -0.3594 H   0  0  0  0  0  0  0  0  0  0  0  0
   -4.3549    6.6873    4.5201 H   0  0  0  0  0  0  0  0  0  0  0  0
   -2.8070    7.0074    3.7141 H   0  0  0  0  0  0  0  0  0  0  0  0
   -2.5873    5.1064    5.2956 H   0  0  0  0  0  0  0  0  0  0  0  0
   -2.3393    4.5594    3.6326 H   0  0  0  0  0  0  0  0  0  0  0  0
   -3.8724    4.2383    4.4502 H   0  0  0  0  0  0  0  0  0  0  0  0
   -2.5783    6.2305  -10.0251 H   0  0  0  0  0  0  0  0  0  0  0  0
   -3.2591    4.6498   -9.5967 H   0  0  0  0  0  0  0  0  0  0  0  0
   -0.8692    4.4258  -10.2203 H   0  0  0  0  0  0  0  0  0  0  0  0
   -1.1028    4.0124   -8.5171 H   0  0  0  0  0  0  0  0  0  0  0  0
   -0.4167    5.5787   -8.9605 H   0  0  0  0  0  0  0  0  0  0  0  0
   -5.9148    7.8523   -5.2867 H   0  0  0  0  0  0  0  0  0  0  0  0
   -7.0904   11.6704   -5.4904 H   0  0  0  0  0  0  0  0  0  0  0  0
   -6.9416   10.0300   -6.1543 H   0  0  0  0  0  0  0  0  0  0  0  0
   -5.9251   10.5230   -4.7780 H   0  0  0  0  0  0  0  0  0  0  0  0
  -11.6996    7.7920   -0.2316 H   0  0  0  0  0  0  0  0  0  0  0  0
  -11.5617    9.3724    0.5635 H   0  0  0  0  0  0  0  0  0  0  0  0
  -12.8000    9.1207   -0.6892 H   0  0  0  0  0  0  0  0  0  0  0  0
  -12.2893   11.9903   -2.2800 H   0  0  0  0  0  0  0  0  0  0  0  0
  -11.9181   12.8720   -0.0242 H   0  0  0  0  0  0  0  0  0  0  0  0
  -11.0103   11.9533    2.4208 H   0  0  0  0  0  0  0  0  0  0  0  0
  -13.1260   11.6120    7.6083 H   0  0  0  0  0  0  0  0  0  0  0  0
  -13.6315   10.7003    6.1721 H   0  0  0  0  0  0  0  0  0  0  0  0
  -11.9794    9.5796    8.4885 H   0  0  0  0  0  0  0  0  0  0  0  0
  -13.6913    9.2591    8.1932 H   0  0  0  0  0  0  0  0  0  0  0  0
  -12.4727    8.6737    7.0546 H   0  0  0  0  0  0  0  0  0  0  0  0
   -2.7704    7.5934   -1.1367 H   0  0  0  0  0  0  0  0  0  0  0  0
   -2.8556    8.5813   -2.6059 H   0  0  0  0  0  0  0  0  0  0  0  0
   -0.6030    8.7067   -1.5696 H   0  0  0  0  0  0  0  0  0  0  0  0
   -1.3120    9.3048   -0.0661 H   0  0  0  0  0  0  0  0  0  0  0  0
   -1.3861   10.2896   -1.5316 H   0  0  0  0  0  0  0  0  0  0  0  0
   -4.2299    9.6812    2.9409 H   0  0  0  0  0  0  0  0  0  0  0  0
   -4.3914    9.4034    5.5108 H   0  0  0  0  0  0  0  0  0  0  0  0
  1  2  2  0  0  0  0
  2  3  1  0  0  0  0
  3  4  2  0  0  0  0
  4  5  1  0  0  0  0
  5  6  1  0  0  0  0
  6  7  1  0  0  0  0
  7  8  1  0  0  0  0
  8  9  1  0  0  0  0
  7 10  2  0  0  0  0
 10 11  1  0  0  0  0
 10 12  1  0  0  0  0
 12 13  1  0  0  0  0
  4 14  1  0  0  0  0
 14 15  2  0  0  0  0
 15 16  1  0  0  0  0
 16 17  1  0  0  0  0
 17 18  1  0  0  0  0
 18 19  1  0  0  0  0
 19 20  1  0  0  0  0
 20 21  1  0  0  0  0
 19 22  2  0  0  0  0
 22 23  1  0  0  0  0
 23 24  1  0  0  0  0
 22 25  1  0  0  0  0
 16 26  2  0  0  0  0
 26 27  1  0  0  0  0
 15 28  1  0  0  0  0
 28 29  2  0  0  0  0
 29 30  1  0  0  0  0
 29 31  1  0  0  0  0
 31 32  2  0  0  0  0
 32 33  1  0  0  0  0
 33 34  2  0  0  0  0
 34 35  1  0  0  0  0
 35 36  1  0  0  0  0
 36 37  1  0  0  0  0
 37 38  1  0  0  0  0
 38 39  1  0  0  0  0
 37 40  2  0  0  0  0
 40 41  1  0  0  0  0
 40 42  1  0  0  0  0
 42 43  1  0  0  0  0
 34 44  1  0  0  0  0
 44 45  2  0  0  0  0
 45 46  1  0  0  0  0
 46 47  1  0  0  0  0
 47 48  1  0  0  0  0
 48 49  1  0  0  0  0
 49 50  1  0  0  0  0
 50 51  1  0  0  0  0
 49 52  2  0  0  0  0
 52 53  1  0  0  0  0
 53 54  1  0  0  0  0
 52 55  1  0  0  0  0
 46 56  2  0  0  0  0
 56 57  1  0  0  0  0
 45 58  1  0  0  0  0
 58 59  2  0  0  0  0
 59 60  1  0  0  0  0
 59 61  1  0  0  0  0
 61 62  2  0  0  0  0
 62 63  1  0  0  0  0
 63 64  2  0  0  0  0
 64 65  1  0  0  0  0
 65 66  1  0  0  0  0
 66 67  1  0  0  0  0
 67 68  1  0  0  0  0
 68 69  1  0  0  0  0
 67 70  2  0  0  0  0
 70 71  1  0  0  0  0
 70 72  1  0  0  0  0
 72 73  1  0  0  0  0
 64 74  1  0  0  0  0
 74 75  2  0  0  0  0
 75 76  1  0  0  0  0
 76 77  1  0  0  0  0
 77 78  1  0  0  0  0
 78 79  1  0  0  0  0
 79 80  1  0  0  0  0
 80 81  1  0  0  0  0
 79 82  2  0  0  0  0
 82 83  1  0  0  0  0
 83 84  1  0  0  0  0
 82 85  1  0  0  0  0
 76 86  2  0  0  0  0
 86 87  1  0  0  0  0
 75 88  1  0  0  0  0
 88 89  2  0  0  0  0
 89 90  1  0  0  0  0
 89 91  1  0  0  0  0
 91 92  2  0  0  0  0
 92 93  1  0  0  0  0
 93 94  2  0  0  0  0
 94 95  1  0  0  0  0
 95 96  1  0  0  0  0
 96 97  1  0  0  0  0
 97 98  1  0  0  0  0
 98 99  1  0  0  0  0
 97100  2  0  0  0  0
100101  1  0  0  0  0
100102  1  0  0  0  0
102103  1  0  0  0  0
 94104  1  0  0  0  0
104105  2  0  0  0  0
105106  1  0  0  0  0
106107  1  0  0  0  0
107108  1  0  0  0  0
108109  1  0  0  0  0
109110  1  0  0  0  0
110111  1  0  0  0  0
109112  2  0  0  0  0
112113  1  0  0  0  0
113114  1  0  0  0  0
112115  1  0  0  0  0
106116  2  0  0  0  0
116117  1  0  0  0  0
105118  1  0  0  0  0
118119  2  0  0  0  0
119120  1  0  0  0  0
119121  1  0  0  0  0
121122  1  0  0  0  0
122123  1  0  0  0  0
122124  1  0  0  0  0
124125  2  0  0  0  0
124126  1  0  0  0  0
126127  1  0  0  0  0
127128  1  0  0  0  0
128129  2  0  0  0  0
128130  1  0  0  0  0
130131  1  0  0  0  0
130132  1  0  0  0  0
132133  1  0  0  0  0
133134  2  0  0  0  0
134135  1  0  0  0  0
135136  2  0  0  0  0
136137  1  0  0  0  0
137138  2  0  0  0  0
138139  1  0  0  0  0
139140  1  0  0  0  0
140141  1  0  0  0  0
141142  1  0  0  0  0
142143  1  0  0  0  0
141144  2  0  0  0  0
144145  1  0  0  0  0
144146  1  0  0  0  0
146147  1  0  0  0  0
138148  1  0  0  0  0
148149  2  0  0  0  0
149150  1  0  0  0  0
150151  1  0  0  0  0
151152  1  0  0  0  0
152153  1  0  0  0  0
153154  1  0  0  0  0
154155  1  0  0  0  0
153156  2  0  0  0  0
156157  1  0  0  0  0
157158  1  0  0  0  0
156159  1  0  0  0  0
150160  2  0  0  0  0
160161  1  0  0  0  0
149162  1  0  0  0  0
162163  2  0  0  0  0
163164  1  0  0  0  0
 27  1  1  0  0  0  0
 57 31  1  0  0  0  0
 87 61  1  0  0  0  0
117 91  1  0  0  0  0
127121  2  0  0  0  0
161135  1  0  0  0  0
 26  3  1  0  0  0  0
 56 33  1  0  0  0  0
 86 63  1  0  0  0  0
116 93  1  0  0  0  0
132126  2  0  0  0  0
160137  1  0  0  0  0
 12  5  2  0  0  0  0
 30 14  1  0  0  0  0
 42 35  2  0  0  0  0
 60 44  1  0  0  0  0
 72 65  2  0  0  0  0
 90 74  1  0  0  0  0
102 95  2  0  0  0  0
120104  1  0  0  0  0
146139  2  0  0  0  0
164148  1  0  0  0  0
 23 17  2  0  0  0  0
 53 47  2  0  0  0  0
 83 77  2  0  0  0  0
113107  2  0  0  0  0
157151  2  0  0  0  0
  1165  1  0  0  0  0
  2166  1  0  0  0  0
  8167  1  0  0  0  0
  8168  1  0  0  0  0
  9169  1  0  0  0  0
  9170  1  0  0  0  0
  9171  1  0  0  0  0
 20172  1  0  0  0  0
 20173  1  0  0  0  0
 21174  1  0  0  0  0
 21175  1  0  0  0  0
 21176  1  0  0  0  0
 28177  1  0  0  0  0
 32178  1  0  0  0  0
 38179  1  0  0  0  0
 38180  1  0  0  0  0
 39181  1  0  0  0  0
 39182  1  0  0  0  0
 39183  1  0  0  0  0
 50184  1  0  0  0  0
 50185  1  0  0  0  0
 51186  1  0  0  0  0
 51187  1  0  0  0  0
 51188  1  0  0  0  0
 58189  1  0  0  0  0
 62190  1  0  0  0  0
 68191  1  0  0  0  0
 68192  1  0  0  0  0
 69193  1  0  0  0  0
 69194  1  0  0  0  0
 69195  1  0  0  0  0
 80196  1  0  0  0  0
 80197  1  0  0  0  0
 81198  1  0  0  0  0
 81199  1  0  0  0  0
 81200  1  0  0  0  0
 88201  1  0  0  0  0
 92202  1  0  0  0  0
 98203  1  0  0  0  0
 98204  1  0  0  0  0
 99205  1  0  0  0  0
 99206  1  0  0  0  0
 99207  1  0  0  0  0
110208  1  0  0  0  0
110209  1  0  0  0  0
111210  1  0  0  0  0
111211  1  0  0  0  0
111212  1  0  0  0  0
118213  1  0  0  0  0
123214  1  0  0  0  0
123215  1  0  0  0  0
123216  1  0  0  0  0
131217  1  0  0  0  0
131218  1  0  0  0  0
131219  1  0  0  0  0
133220  1  0  0  0  0
134221  1  0  0  0  0
136222  1  0  0  0  0
142223  1  0  0  0  0
142224  1  0  0  0  0
143225  1  0  0  0  0
143226  1  0  0  0  0
143227  1  0  0  0  0
154228  1  0  0  0  0
154229  1  0  0  0  0
155230  1  0  0  0  0
155231  1  0  0  0  0
155232  1  0  0  0  0
162233  1  0  0  0  0
163234  1  0  0  0  0
M  END
