234

C         11.94270      -16.67650        3.14520
C         10.88810      -16.21930        3.84960
C         10.34920      -15.01040        3.31900
C          9.24520      -14.27450        3.78060
C          8.41610      -14.75850        4.87220
S          8.05960      -13.76850        6.25550
C          7.08350      -14.99880        6.98090
C          6.46130      -14.80320        8.31930
C          7.43040      -15.19520        9.43720
C          7.04860      -16.10690        6.18770
Cl         6.17690      -17.53370        6.57450
C          7.79920      -15.97330        4.98930
Cl         7.84450      -17.19620        3.78530
C          8.97110      -13.07610        3.13420
C          9.72530      -12.62250        2.02660
C         10.77630      -13.39800        1.50940
C         11.46710      -12.96530        0.30650
S         13.19640      -12.80860        0.23520
C         13.15420      -12.20710       -1.38660
C         14.39290      -11.77530       -2.09060
C         14.61760      -10.27030       -1.92210
C         11.86820      -12.14040       -1.83450
C         10.91010      -12.57340       -0.88160
Cl         9.23300      -12.66040       -1.24450
Cl        11.42810      -11.58580       -3.39580
C         11.08330      -14.56710        2.19210
S         12.36280      -15.67840        1.79530
C          9.27480      -11.36600        1.56080
C          8.18290      -10.89550        2.22820
S          7.68190      -11.96720        3.51760
C          7.49340       -9.68930        1.89670
C          7.62210       -9.03320        0.70750
C          6.86380       -7.84380        0.62930
C          6.81550       -6.93380       -0.44330
C          7.69080       -7.11880       -1.58730
S          7.08250       -7.14380       -3.21560
C          8.64330       -7.48840       -3.87690
C          8.83550       -7.72500       -5.33400
C          8.71170       -9.21520       -5.66260
C          9.57300       -7.57050       -2.88280
Cl        11.23240       -7.90650       -3.15160
C          9.03980       -7.35560       -1.58550
Cl        10.03170       -7.31990       -0.18320
C          5.90160       -5.89520       -0.33870
C          5.09640       -5.71520        0.81250
C          5.22010       -6.56560        1.92700
C          4.44790       -6.29760        3.12740
S          3.45850       -7.51490        3.87630
C          2.86390       -6.41010        5.06780
C          1.83370       -6.82070        6.06060
C          0.42530       -6.58440        5.50850
C          3.41360       -5.17550        4.88730
C          4.31570       -5.10850        3.79390
Cl         5.19880       -3.68250        3.42210
Cl         3.05960       -3.81730        5.87160
C          6.08870       -7.63890        1.79730
S          6.38580       -8.88090        2.98280
C          4.19840       -4.63660        0.66030
C          4.33460       -3.96970       -0.52270
S          5.57590       -4.67130       -1.53660
C          3.53700       -2.84580       -0.89650
C          2.76850       -2.13090       -0.02370
C          1.96180       -1.15520       -0.64660
C          1.03720       -0.29620       -0.02830
C          0.75560       -0.42390        1.39120
S          0.82720        0.93970        2.46730
C          0.45640       -0.03150        3.85020
C          0.42750        0.54520        5.22250
C          1.79430        0.40540        5.89820
C          0.28590       -1.33340        3.48330
Cl        -0.08950       -2.59330        4.58240
C          0.44790       -1.55960        2.09150
Cl         0.19130       -3.10340        1.38220
C          0.41540        0.63830       -0.84200
C          0.65240        0.72120       -2.23710
C          1.54170       -0.17410       -2.86150
C          1.77700       -0.12250       -4.29490
S          2.25350        1.35790       -5.07610
C          2.33210        0.60660       -6.63190
C          2.75750        1.36550       -7.84020
C          4.27430        1.28650       -8.03000
C          2.01450       -0.71520       -6.53460
C          1.69640       -1.13220       -5.21390
Cl         1.17540       -2.72510       -4.85800
Cl         1.97980       -1.78860       -7.87220
C          2.17960       -1.10050       -2.04550
S          3.35370       -2.28860       -2.54300
C         -0.14960        1.71900       -2.84360
C         -0.96400        2.37220       -1.96690
S         -0.77980        1.79110       -0.32440
C         -1.90730        3.40090       -2.25160
C         -2.79820        3.96690       -1.38910
C         -3.62960        4.94270       -1.99050
C         -4.64190        5.71040       -1.38420
C         -4.80290        5.73450        0.05800
S         -3.37280        5.89560        1.05150
C         -4.29140        6.11270        2.49710
C         -3.62350        6.28990        3.81490
C         -3.06880        4.96070        4.33240
C         -5.62190        6.03510        2.21910
Cl        -6.84890        6.24220        3.39650
C         -5.92220        5.81100        0.84540
Cl        -7.53590        5.58260        0.30820
C         -5.37500        6.54650       -2.22690
C         -5.07360        6.71430       -3.60380
C         -4.01010        6.00070       -4.18430
C         -3.61020        6.22420       -5.56270
S         -3.41270        4.90610       -6.67800
C         -2.93860        5.96250       -7.96420
C         -2.54780        5.42080       -9.29430
C         -1.14110        4.81960       -9.24480
C         -2.92950        7.25690       -7.53680
C         -3.31410        7.40960       -6.17790
Cl        -3.30820        8.93520       -5.38970
Cl        -2.50130        8.59440       -8.52570
C         -3.34590        5.09360       -3.37020
S         -2.03680        4.05930       -3.86910
C         -5.94360        7.64080       -4.23430
C         -6.86730        8.16620       -3.38230
S         -6.70250        7.55140       -1.75730
C         -7.94990        9.09030       -3.55660
N         -7.94090       10.22450       -4.32510
C         -6.90800       10.62540       -5.23890
C         -9.05010       11.05810       -4.03520
O         -9.22950       12.12960       -4.56770
C         -9.80300       10.31280       -3.04820
C         -9.11430        9.07630       -2.82010
C         -9.81770        8.34040       -1.79870
O         -9.67880        7.23010       -1.32930
N        -10.84260        9.22210       -1.40550
C        -11.78530        8.86880       -0.38040
C        -10.79140       10.40940       -2.09560
C        -11.54890       11.55830       -1.62400
C        -11.30740       12.06590       -0.40820
C        -10.22120       11.64250        0.44940
C        -10.17740       11.65400        1.81030
C         -8.94010       11.20590        2.34570
C         -8.60200       11.00840        3.69220
C         -9.56190       11.22940        4.76170
S        -11.10420       10.42420        4.76830
C        -11.56080       11.13860        6.27710
C        -12.85400       10.79980        6.93180
C        -12.74180        9.49160        7.71880
C        -10.56530       11.94790        6.73650
Cl       -10.65220       12.83360        8.20330
C         -9.43250       12.00430        5.88000
Cl        -8.08770       13.01720        6.19960
C         -7.31700       10.54900        3.95540
C         -6.34650       10.32590        2.94790
C         -6.67460       10.54150        1.59540
C         -5.71110       10.33280        0.52850
S         -4.63630        8.96120        0.55320
C         -3.90320        9.37810       -0.95380
C         -2.75730        8.61400       -1.51880
C         -1.42740        9.27400       -1.14670
C         -4.46580       10.52070       -1.43670
C         -5.47740       11.07110       -0.60490
Cl        -6.17550       12.59250       -0.97760
Cl        -3.99840       11.24840       -2.91790
C         -7.98530       10.94250        1.33240
S         -8.69560       11.12180       -0.23940
C         -5.11600        9.87870        3.51360
C         -5.17350        9.72840        4.85280
S         -6.70600       10.13840        5.53160
H         12.52580      -17.55740        3.32970
H         10.50190      -16.70390        4.72710
H          6.17610      -13.75640        8.43530
H          5.56360      -15.42110        8.38170
H          6.96120      -15.04820       10.40620
H          8.32950      -14.58570        9.38780
H          7.71250      -16.24060        9.34190
H         15.24670      -12.32140       -1.68690
H         14.29620      -12.01030       -3.15280
H         13.77580       -9.71520       -2.32800
H         14.72370      -10.01930       -0.86940
H         15.51960       -9.96680       -2.44660
H          9.76550      -10.81620        0.78060
H          8.20860       -9.41300       -0.10690
H          9.82780       -7.37110       -5.62180
H          8.08630       -7.16300       -5.89350
H          8.86060       -9.37630       -6.72680
H          9.45890       -9.78540       -5.11660
H          7.72580       -9.58210       -5.38770
H          1.96070       -7.87800        6.29820
H          1.96940       -6.23640        6.97300
H         -0.31860       -6.88110        6.24280
H          0.28330       -5.53230        5.27510
H          0.27300       -7.16470        4.60160
H          3.44370       -4.39450        1.38350
H          2.79860       -2.27920        1.03840
H          0.15160        1.59910        5.16610
H         -0.32420        0.01630        5.81230
H          2.55420        0.93220        5.32600
H          1.75960        0.82260        6.90090
H          2.07580       -0.64220        5.96700
H          2.25950        0.94030       -8.71400
H          2.45590        2.40910       -7.73720
H          4.58530        0.25170       -8.14690
H          4.78530        1.70800       -7.16770
H          4.56870        1.84150       -8.91650
H         -0.14160        1.94040       -3.89540
H         -2.87020        3.66850       -0.35940
H         -4.35490        6.68730        4.52010
H         -2.80700        7.00740        3.71410
H         -2.58730        5.10640        5.29560
H         -2.33930        4.55940        3.63260
H         -3.87240        4.23830        4.45020
H         -2.57830        6.23050      -10.02510
H         -3.25910        4.64980       -9.59670
H         -0.86920        4.42580      -10.22030
H         -1.10280        4.01240       -8.51710
H         -0.41670        5.57870       -8.96050
H         -5.91480        7.85230       -5.28670
H         -7.09040       11.67040       -5.49040
H         -6.94160       10.03000       -6.15430
H         -5.92510       10.52300       -4.77800
H        -11.69960        7.79200       -0.23160
H        -11.56170        9.37240        0.56350
H        -12.80000        9.12070       -0.68920
H        -12.28930       11.99030       -2.28000
H        -11.91810       12.87200       -0.02420
H        -11.01030       11.95330        2.42080
H        -13.12600       11.61200        7.60830
H        -13.63150       10.70030        6.17210
H        -11.97940        9.57960        8.48850
H        -13.69130        9.25910        8.19320
H        -12.47270        8.67370        7.05460
H         -2.77040        7.59340       -1.13670
H         -2.85560        8.58130       -2.60590
H         -0.60300        8.70670       -1.56960
H         -1.31200        9.30480       -0.06610
H         -1.38610       10.28960       -1.53160
H         -4.22990        9.68120        2.94090
H         -4.39140        9.40340        5.51080
