
  xtb     03072214333D
 energy: -381.571104913553 gnorm: 0.000451498673 xtb: 6.4.1 (unknown)
218238  0     0  0            999 V2000
    1.9098  -10.0100    2.8241 C   0  0  0  0  0  0  0  0  0  0  0  0
    2.9193   -9.1737    2.5099 C   0  0  0  0  0  0  0  0  0  0  0  0
    2.4746   -7.8460    2.2356 C   0  0  0  0  0  0  0  0  0  0  0  0
    3.2462   -6.7195    1.9197 C   0  0  0  0  0  0  0  0  0  0  0  0
    4.7130   -6.7713    1.9018 C   0  0  0  0  0  0  0  0  0  0  0  0
    5.4370   -6.2883    0.8170 C   0  0  0  0  0  0  0  0  0  0  0  0
    6.8180   -6.3351    0.7981 C   0  0  0  0  0  0  0  0  0  0  0  0
    7.5261   -6.8625    1.8721 C   0  0  0  0  0  0  0  0  0  0  0  0
    9.2760   -6.9896    1.9809 S   0  0  0  0  0  0  0  0  0  0  0  0
    9.8581   -6.1903    0.4390 C   0  0  0  0  0  0  0  0  0  0  0  0
   11.3753   -6.1790    0.4421 C   0  0  0  0  0  0  0  0  0  0  0  0
    6.7859   -7.3384    2.9572 C   0  0  0  0  0  0  0  0  0  0  0  0
    7.4410   -7.8549    4.0170 F   0  0  0  0  0  0  0  0  0  0  0  0
    5.4113   -7.3022    2.9856 C   0  0  0  0  0  0  0  0  0  0  0  0
    2.5540   -5.5465    1.6506 C   0  0  0  0  0  0  0  0  0  0  0  0
    1.1405   -5.4422    1.7197 C   0  0  0  0  0  0  0  0  0  0  0  0
    0.3746   -6.5527    2.1128 C   0  0  0  0  0  0  0  0  0  0  0  0
   -1.0621   -6.4836    2.4059 C   0  0  0  0  0  0  0  0  0  0  0  0
   -1.9551   -7.4258    1.8958 C   0  0  0  0  0  0  0  0  0  0  0  0
   -3.2599   -7.4580    2.3296 C   0  0  0  0  0  0  0  0  0  0  0  0
   -3.7384   -6.5633    3.2913 C   0  0  0  0  0  0  0  0  0  0  0  0
   -5.4086   -6.8175    3.7908 S   0  0  0  0  0  0  0  0  0  0  0  0
   -5.6267   -5.8599    5.3376 C   0  0  0  0  0  0  0  0  0  0  0  0
   -6.9544   -6.2515    5.9556 C   0  0  0  0  0  0  0  0  0  0  0  0
   -2.8542   -5.5850    3.7367 C   0  0  0  0  0  0  0  0  0  0  0  0
   -1.5407   -5.5437    3.3112 C   0  0  0  0  0  0  0  0  0  0  0  0
   -3.2349   -4.6346    4.6225 F   0  0  0  0  0  0  0  0  0  0  0  0
    1.0660   -7.7377    2.3280 C   0  0  0  0  0  0  0  0  0  0  0  0
    0.3520   -9.2582    2.8052 S   0  0  0  0  0  0  0  0  0  0  0  0
    0.6882   -4.1474    1.3533 C   0  0  0  0  0  0  0  0  0  0  0  0
    1.7073   -3.2789    1.0861 C   0  0  0  0  0  0  0  0  0  0  0  0
    3.2868   -4.0190    1.2593 S   0  0  0  0  0  0  0  0  0  0  0  0
    1.6993   -1.8903    0.7314 C   0  0  0  0  0  0  0  0  0  0  0  0
    0.8274   -1.2911   -0.1478 N   0  0  0  0  0  0  0  0  0  0  0  0
   -0.1205   -1.9740   -0.9874 C   0  0  0  0  0  0  0  0  0  0  0  0
    1.1478    0.0708   -0.3464 C   0  0  0  0  0  0  0  0  0  0  0  0
    0.5533    0.7861   -1.1312 O   0  0  0  0  0  0  0  0  0  0  0  0
    2.2740    0.3065    0.5212 C   0  0  0  0  0  0  0  0  0  0  0  0
    2.5930   -0.9288    1.1601 C   0  0  0  0  0  0  0  0  0  0  0  0
    3.7404   -0.7139    2.0052 C   0  0  0  0  0  0  0  0  0  0  0  0
    4.4042   -1.4502    2.7009 O   0  0  0  0  0  0  0  0  0  0  0  0
    4.0273    0.6654    1.8497 N   0  0  0  0  0  0  0  0  0  0  0  0
    5.2350    1.2024    2.4154 C   0  0  0  0  0  0  0  0  0  0  0  0
    3.1696    1.2711    0.9612 C   0  0  0  0  0  0  0  0  0  0  0  0
    3.2766    2.6227    0.4915 C   0  0  0  0  0  0  0  0  0  0  0  0
    3.7169    3.7175    1.1435 C   0  0  0  0  0  0  0  0  0  0  0  0
    3.9222    3.8961    2.5547 C   0  0  0  0  0  0  0  0  0  0  0  0
    3.0666    3.4474    3.5290 N   0  0  0  0  0  0  0  0  0  0  0  0
    1.8214    2.7594    3.3361 C   0  0  0  0  0  0  0  0  0  0  0  0
    3.4872    3.8375    4.8208 C   0  0  0  0  0  0  0  0  0  0  0  0
    2.8991    3.5021    5.8297 O   0  0  0  0  0  0  0  0  0  0  0  0
    4.6879    4.6009    4.5884 C   0  0  0  0  0  0  0  0  0  0  0  0
    4.9368    4.5984    3.1829 C   0  0  0  0  0  0  0  0  0  0  0  0
    6.2168    5.2257    2.9507 C   0  0  0  0  0  0  0  0  0  0  0  0
    6.8556    5.4433    1.9430 O   0  0  0  0  0  0  0  0  0  0  0  0
    6.6597    5.5794    4.2444 N   0  0  0  0  0  0  0  0  0  0  0  0
    7.8939    6.2817    4.4612 C   0  0  0  0  0  0  0  0  0  0  0  0
    5.7405    5.2548    5.2146 C   0  0  0  0  0  0  0  0  0  0  0  0
    5.9257    5.5448    6.6060 C   0  0  0  0  0  0  0  0  0  0  0  0
    4.9100    5.8409    7.4475 C   0  0  0  0  0  0  0  0  0  0  0  0
    3.5779    6.1416    7.0098 C   0  0  0  0  0  0  0  0  0  0  0  0
    3.2965    6.9117    5.8999 N   0  0  0  0  0  0  0  0  0  0  0  0
    4.1722    7.8430    5.2423 C   0  0  0  0  0  0  0  0  0  0  0  0
    1.9480    6.8011    5.5170 C   0  0  0  0  0  0  0  0  0  0  0  0
    1.4770    7.3638    4.5499 O   0  0  0  0  0  0  0  0  0  0  0  0
    1.3786    5.9313    6.5160 C   0  0  0  0  0  0  0  0  0  0  0  0
    2.3862    5.6096    7.4680 C   0  0  0  0  0  0  0  0  0  0  0  0
    1.8400    4.5877    8.3486 C   0  0  0  0  0  0  0  0  0  0  0  0
    2.2640    4.0700    9.3546 O   0  0  0  0  0  0  0  0  0  0  0  0
    0.5672    4.3054    7.8064 N   0  0  0  0  0  0  0  0  0  0  0  0
   -0.2705    3.2938    8.3868 C   0  0  0  0  0  0  0  0  0  0  0  0
    0.3231    5.0434    6.6748 C   0  0  0  0  0  0  0  0  0  0  0  0
   -0.5887    4.8240    5.6127 C   0  0  0  0  0  0  0  0  0  0  0  0
   -1.3641    3.7475    5.3340 C   0  0  0  0  0  0  0  0  0  0  0  0
   -1.7820    3.4745    4.0003 C   0  0  0  0  0  0  0  0  0  0  0  0
   -2.4275    2.3588    3.5377 C   0  0  0  0  0  0  0  0  0  0  0  0
   -2.4395    2.2534    2.1264 C   0  0  0  0  0  0  0  0  0  0  0  0
   -2.8943    1.1849    1.3437 C   0  0  0  0  0  0  0  0  0  0  0  0
   -3.5791   -0.0122    1.8509 C   0  0  0  0  0  0  0  0  0  0  0  0
   -4.8384    0.0299    2.4403 C   0  0  0  0  0  0  0  0  0  0  0  0
   -5.5462   -1.1372    2.6411 C   0  0  0  0  0  0  0  0  0  0  0  0
   -5.0260   -2.3783    2.2764 C   0  0  0  0  0  0  0  0  0  0  0  0
   -6.0742   -3.7892    2.4332 S   0  0  0  0  0  0  0  0  0  0  0  0
   -5.7009   -4.7686    0.9328 C   0  0  0  0  0  0  0  0  0  0  0  0
   -5.9000   -3.9733   -0.3414 C   0  0  0  0  0  0  0  0  0  0  0  0
   -3.7178   -2.4096    1.8049 C   0  0  0  0  0  0  0  0  0  0  0  0
   -3.0978   -3.5762    1.5083 F   0  0  0  0  0  0  0  0  0  0  0  0
   -3.0078   -1.2507    1.5823 C   0  0  0  0  0  0  0  0  0  0  0  0
   -2.6575    1.2616   -0.0190 C   0  0  0  0  0  0  0  0  0  0  0  0
   -1.9858    2.3395   -0.6407 C   0  0  0  0  0  0  0  0  0  0  0  0
   -1.5125    3.4053    0.1432 C   0  0  0  0  0  0  0  0  0  0  0  0
   -0.7016    4.4724   -0.4527 C   0  0  0  0  0  0  0  0  0  0  0  0
    0.3756    4.1375   -1.2716 C   0  0  0  0  0  0  0  0  0  0  0  0
    1.1539    5.1168   -1.8553 C   0  0  0  0  0  0  0  0  0  0  0  0
    0.8716    6.4645   -1.6568 C   0  0  0  0  0  0  0  0  0  0  0  0
    1.7798    7.7972   -2.3688 S   0  0  0  0  0  0  0  0  0  0  0  0
    2.5122    7.0595   -3.8739 C   0  0  0  0  0  0  0  0  0  0  0  0
    1.4593    6.6261   -4.8750 C   0  0  0  0  0  0  0  0  0  0  0  0
   -0.1917    6.7826   -0.8105 C   0  0  0  0  0  0  0  0  0  0  0  0
   -0.9683    5.8167   -0.2082 C   0  0  0  0  0  0  0  0  0  0  0  0
   -0.4873    8.0769   -0.5895 F   0  0  0  0  0  0  0  0  0  0  0  0
   -1.7757    3.3435    1.5028 C   0  0  0  0  0  0  0  0  0  0  0  0
   -1.2187    4.4965    2.6822 S   0  0  0  0  0  0  0  0  0  0  0  0
   -1.8841    2.1590   -2.0417 C   0  0  0  0  0  0  0  0  0  0  0  0
   -2.4261    0.9875   -2.4793 C   0  0  0  0  0  0  0  0  0  0  0  0
   -3.1372    0.0556   -1.1797 S   0  0  0  0  0  0  0  0  0  0  0  0
   -2.4186    0.4581   -3.8049 C   0  0  0  0  0  0  0  0  0  0  0  0
   -1.6686    0.8759   -4.8631 C   0  0  0  0  0  0  0  0  0  0  0  0
   -1.8618    0.1007   -6.0357 C   0  0  0  0  0  0  0  0  0  0  0  0
   -1.2415    0.2561   -7.2852 C   0  0  0  0  0  0  0  0  0  0  0  0
   -0.2952    1.3535   -7.5224 C   0  0  0  0  0  0  0  0  0  0  0  0
   -0.6386    2.6710   -7.2204 C   0  0  0  0  0  0  0  0  0  0  0  0
    0.2687    3.6928   -7.4000 C   0  0  0  0  0  0  0  0  0  0  0  0
    1.5488    3.4458   -7.8923 C   0  0  0  0  0  0  0  0  0  0  0  0
    2.6243    4.8371   -8.0991 S   0  0  0  0  0  0  0  0  0  0  0  0
    4.2554    4.2211   -7.5365 C   0  0  0  0  0  0  0  0  0  0  0  0
    4.2138    3.7257   -6.1050 C   0  0  0  0  0  0  0  0  0  0  0  0
    1.8621    2.1337   -8.2324 C   0  0  0  0  0  0  0  0  0  0  0  0
    3.0685    1.8239   -8.7550 F   0  0  0  0  0  0  0  0  0  0  0  0
    0.9687    1.0985   -8.0428 C   0  0  0  0  0  0  0  0  0  0  0  0
   -1.5668   -0.6749   -8.2615 C   0  0  0  0  0  0  0  0  0  0  0  0
   -2.5026   -1.7186   -8.0571 C   0  0  0  0  0  0  0  0  0  0  0  0
   -3.1371   -1.8629   -6.8145 C   0  0  0  0  0  0  0  0  0  0  0  0
   -4.1489   -2.8976   -6.5659 C   0  0  0  0  0  0  0  0  0  0  0  0
   -5.2269   -3.0717   -7.4328 C   0  0  0  0  0  0  0  0  0  0  0  0
   -6.2011   -4.0082   -7.1621 C   0  0  0  0  0  0  0  0  0  0  0  0
   -6.1405   -4.8148   -6.0265 C   0  0  0  0  0  0  0  0  0  0  0  0
   -7.4276   -6.0096   -5.8203 S   0  0  0  0  0  0  0  0  0  0  0  0
   -7.7473   -6.0365   -4.0177 C   0  0  0  0  0  0  0  0  0  0  0  0
   -8.1350   -4.6711   -3.4871 C   0  0  0  0  0  0  0  0  0  0  0  0
   -5.0456   -4.6477   -5.1849 C   0  0  0  0  0  0  0  0  0  0  0  0
   -4.0717   -3.7025   -5.4341 C   0  0  0  0  0  0  0  0  0  0  0  0
   -4.8931   -5.4149   -4.0812 F   0  0  0  0  0  0  0  0  0  0  0  0
   -2.7803   -0.9571   -5.8258 C   0  0  0  0  0  0  0  0  0  0  0  0
   -3.4086   -0.9314   -4.1993 S   0  0  0  0  0  0  0  0  0  0  0  0
   -2.6426   -2.5316   -9.2216 C   0  0  0  0  0  0  0  0  0  0  0  0
   -1.8821   -2.1096  -10.2515 C   0  0  0  0  0  0  0  0  0  0  0  0
   -0.9360   -0.7071   -9.8882 S   0  0  0  0  0  0  0  0  0  0  0  0
    1.9705  -11.0526    3.0687 H   0  0  0  0  0  0  0  0  0  0  0  0
    3.9496   -9.4746    2.4561 H   0  0  0  0  0  0  0  0  0  0  0  0
    4.9144   -5.8882   -0.0381 H   0  0  0  0  0  0  0  0  0  0  0  0
    7.3389   -5.9578   -0.0662 H   0  0  0  0  0  0  0  0  0  0  0  0
    9.4757   -6.7646   -0.4052 H   0  0  0  0  0  0  0  0  0  0  0  0
    9.4608   -5.1755    0.4173 H   0  0  0  0  0  0  0  0  0  0  0  0
   11.7435   -5.7075   -0.4666 H   0  0  0  0  0  0  0  0  0  0  0  0
   11.7496   -5.6254    1.2999 H   0  0  0  0  0  0  0  0  0  0  0  0
   11.7635   -7.1936    0.4916 H   0  0  0  0  0  0  0  0  0  0  0  0
    4.8930   -7.6621    3.8605 H   0  0  0  0  0  0  0  0  0  0  0  0
   -1.6211   -8.1368    1.1564 H   0  0  0  0  0  0  0  0  0  0  0  0
   -3.9434   -8.2001    1.9467 H   0  0  0  0  0  0  0  0  0  0  0  0
   -5.6111   -4.8008    5.0861 H   0  0  0  0  0  0  0  0  0  0  0  0
   -4.7952   -6.1047    5.9970 H   0  0  0  0  0  0  0  0  0  0  0  0
   -7.7708   -6.0181    5.2759 H   0  0  0  0  0  0  0  0  0  0  0  0
   -6.9784   -7.3170    6.1737 H   0  0  0  0  0  0  0  0  0  0  0  0
   -7.1030   -5.7008    6.8817 H   0  0  0  0  0  0  0  0  0  0  0  0
   -0.8897   -4.7881    3.7237 H   0  0  0  0  0  0  0  0  0  0  0  0
   -0.3540   -3.8858    1.3223 H   0  0  0  0  0  0  0  0  0  0  0  0
   -0.4394   -1.2649   -1.7519 H   0  0  0  0  0  0  0  0  0  0  0  0
    0.3444   -2.8409   -1.4599 H   0  0  0  0  0  0  0  0  0  0  0  0
   -0.9963   -2.3083   -0.4306 H   0  0  0  0  0  0  0  0  0  0  0  0
    5.0488    1.6843    3.3772 H   0  0  0  0  0  0  0  0  0  0  0  0
    5.9083    0.3603    2.5863 H   0  0  0  0  0  0  0  0  0  0  0  0
    5.6970    1.9161    1.7345 H   0  0  0  0  0  0  0  0  0  0  0  0
    2.9979    2.7308   -0.5491 H   0  0  0  0  0  0  0  0  0  0  0  0
    3.9237    4.6085    0.5635 H   0  0  0  0  0  0  0  0  0  0  0  0
    1.1949    2.9729    4.2031 H   0  0  0  0  0  0  0  0  0  0  0  0
    1.9653    1.6779    3.2742 H   0  0  0  0  0  0  0  0  0  0  0  0
    1.3314    3.1099    2.4281 H   0  0  0  0  0  0  0  0  0  0  0  0
    7.7189    7.2370    4.9598 H   0  0  0  0  0  0  0  0  0  0  0  0
    8.5842    5.6836    5.0599 H   0  0  0  0  0  0  0  0  0  0  0  0
    8.3347    6.4592    3.4800 H   0  0  0  0  0  0  0  0  0  0  0  0
    6.9328    5.4581    6.9915 H   0  0  0  0  0  0  0  0  0  0  0  0
    5.0724    5.8309    8.5162 H   0  0  0  0  0  0  0  0  0  0  0  0
    3.5611    8.6792    4.8984 H   0  0  0  0  0  0  0  0  0  0  0  0
    4.6537    7.4008    4.3676 H   0  0  0  0  0  0  0  0  0  0  0  0
    4.9315    8.1995    5.9369 H   0  0  0  0  0  0  0  0  0  0  0  0
    0.1164    3.0963    9.3875 H   0  0  0  0  0  0  0  0  0  0  0  0
   -1.3023    3.6404    8.4536 H   0  0  0  0  0  0  0  0  0  0  0  0
   -0.2251    2.3661    7.8107 H   0  0  0  0  0  0  0  0  0  0  0  0
   -0.4674    5.5644    4.8285 H   0  0  0  0  0  0  0  0  0  0  0  0
   -1.5892    2.9868    6.0665 H   0  0  0  0  0  0  0  0  0  0  0  0
   -2.8429    1.6047    4.1831 H   0  0  0  0  0  0  0  0  0  0  0  0
   -5.2840    0.9821    2.6848 H   0  0  0  0  0  0  0  0  0  0  0  0
   -6.5443   -1.1061    3.0499 H   0  0  0  0  0  0  0  0  0  0  0  0
   -4.6914   -5.1675    1.0109 H   0  0  0  0  0  0  0  0  0  0  0  0
   -6.4079   -5.5954    1.0000 H   0  0  0  0  0  0  0  0  0  0  0  0
   -6.9115   -3.5753   -0.3918 H   0  0  0  0  0  0  0  0  0  0  0  0
   -5.7314   -4.6194   -1.2004 H   0  0  0  0  0  0  0  0  0  0  0  0
   -5.2007   -3.1407   -0.4004 H   0  0  0  0  0  0  0  0  0  0  0  0
   -2.0038   -1.3104    1.1936 H   0  0  0  0  0  0  0  0  0  0  0  0
    0.6077    3.0948   -1.4291 H   0  0  0  0  0  0  0  0  0  0  0  0
    1.9900    4.8249   -2.4714 H   0  0  0  0  0  0  0  0  0  0  0  0
    3.1724    6.2436   -3.5805 H   0  0  0  0  0  0  0  0  0  0  0  0
    3.1209    7.8687   -4.2769 H   0  0  0  0  0  0  0  0  0  0  0  0
    0.8081    7.4628   -5.1163 H   0  0  0  0  0  0  0  0  0  0  0  0
    1.9343    6.2835   -5.7926 H   0  0  0  0  0  0  0  0  0  0  0  0
    0.8493    5.8187   -4.4741 H   0  0  0  0  0  0  0  0  0  0  0  0
   -1.7909    6.1219    0.4190 H   0  0  0  0  0  0  0  0  0  0  0  0
   -1.4288    2.8760   -2.6984 H   0  0  0  0  0  0  0  0  0  0  0  0
   -0.9699    1.6891   -4.7994 H   0  0  0  0  0  0  0  0  0  0  0  0
   -1.6286    2.8925   -6.8517 H   0  0  0  0  0  0  0  0  0  0  0  0
    0.0011    4.7102   -7.1596 H   0  0  0  0  0  0  0  0  0  0  0  0
    4.5996    3.4523   -8.2242 H   0  0  0  0  0  0  0  0  0  0  0  0
    4.8987    5.0958   -7.6316 H   0  0  0  0  0  0  0  0  0  0  0  0
    3.5511    2.8672   -6.0098 H   0  0  0  0  0  0  0  0  0  0  0  0
    3.8611    4.5112   -5.4401 H   0  0  0  0  0  0  0  0  0  0  0  0
    5.2122    3.4254   -5.7934 H   0  0  0  0  0  0  0  0  0  0  0  0
    1.2759    0.0966   -8.2987 H   0  0  0  0  0  0  0  0  0  0  0  0
   -5.3175   -2.4425   -8.3050 H   0  0  0  0  0  0  0  0  0  0  0  0
   -7.0407   -4.1304   -7.8286 H   0  0  0  0  0  0  0  0  0  0  0  0
   -8.5730   -6.7423   -3.9258 H   0  0  0  0  0  0  0  0  0  0  0  0
   -6.8768   -6.4431   -3.5077 H   0  0  0  0  0  0  0  0  0  0  0  0
   -8.9816   -4.2729   -4.0424 H   0  0  0  0  0  0  0  0  0  0  0  0
   -8.4126   -4.7534   -2.4383 H   0  0  0  0  0  0  0  0  0  0  0  0
   -7.3065   -3.9699   -3.5698 H   0  0  0  0  0  0  0  0  0  0  0  0
   -3.2419   -3.6265   -4.7492 H   0  0  0  0  0  0  0  0  0  0  0  0
   -3.2761   -3.3988   -9.2637 H   0  0  0  0  0  0  0  0  0  0  0  0
   -1.8010   -2.5398  -11.2306 H   0  0  0  0  0  0  0  0  0  0  0  0
  1  2  2  0  0  0  0
  2  3  1  0  0  0  0
  3  4  2  0  0  0  0
  4  5  1  0  0  0  0
  5  6  2  0  0  0  0
  6  7  1  0  0  0  0
  7  8  2  0  0  0  0
  8  9  1  0  0  0  0
  9 10  1  0  0  0  0
 10 11  1  0  0  0  0
  8 12  1  0  0  0  0
 12 13  1  0  0  0  0
 12 14  2  0  0  0  0
  4 15  1  0  0  0  0
 15 16  2  0  0  0  0
 16 17  1  0  0  0  0
 17 18  1  0  0  0  0
 18 19  2  0  0  0  0
 19 20  1  0  0  0  0
 20 21  2  0  0  0  0
 21 22  1  0  0  0  0
 22 23  1  0  0  0  0
 23 24  1  0  0  0  0
 21 25  1  0  0  0  0
 25 26  2  0  0  0  0
 25 27  1  0  0  0  0
 17 28  2  0  0  0  0
 28 29  1  0  0  0  0
 16 30  1  0  0  0  0
 30 31  2  0  0  0  0
 31 32  1  0  0  0  0
 31 33  1  0  0  0  0
 33 34  1  0  0  0  0
 34 35  1  0  0  0  0
 34 36  1  0  0  0  0
 36 37  2  0  0  0  0
 36 38  1  0  0  0  0
 38 39  1  0  0  0  0
 39 40  1  0  0  0  0
 40 41  2  0  0  0  0
 40 42  1  0  0  0  0
 42 43  1  0  0  0  0
 42 44  1  0  0  0  0
 44 45  1  0  0  0  0
 45 46  2  0  0  0  0
 46 47  1  0  0  0  0
 47 48  1  0  0  0  0
 48 49  1  0  0  0  0
 48 50  1  0  0  0  0
 50 51  2  0  0  0  0
 50 52  1  0  0  0  0
 52 53  1  0  0  0  0
 53 54  1  0  0  0  0
 54 55  2  0  0  0  0
 54 56  1  0  0  0  0
 56 57  1  0  0  0  0
 56 58  1  0  0  0  0
 58 59  1  0  0  0  0
 59 60  2  0  0  0  0
 60 61  1  0  0  0  0
 61 62  1  0  0  0  0
 62 63  1  0  0  0  0
 62 64  1  0  0  0  0
 64 65  2  0  0  0  0
 64 66  1  0  0  0  0
 66 67  1  0  0  0  0
 67 68  1  0  0  0  0
 68 69  2  0  0  0  0
 68 70  1  0  0  0  0
 70 71  1  0  0  0  0
 70 72  1  0  0  0  0
 72 73  1  0  0  0  0
 73 74  2  0  0  0  0
 74 75  1  0  0  0  0
 75 76  2  0  0  0  0
 76 77  1  0  0  0  0
 77 78  2  0  0  0  0
 78 79  1  0  0  0  0
 79 80  2  0  0  0  0
 80 81  1  0  0  0  0
 81 82  2  0  0  0  0
 82 83  1  0  0  0  0
 83 84  1  0  0  0  0
 84 85  1  0  0  0  0
 82 86  1  0  0  0  0
 86 87  1  0  0  0  0
 86 88  2  0  0  0  0
 78 89  1  0  0  0  0
 89 90  2  0  0  0  0
 90 91  1  0  0  0  0
 91 92  1  0  0  0  0
 92 93  2  0  0  0  0
 93 94  1  0  0  0  0
 94 95  2  0  0  0  0
 95 96  1  0  0  0  0
 96 97  1  0  0  0  0
 97 98  1  0  0  0  0
 95 99  1  0  0  0  0
 99100  2  0  0  0  0
 99101  1  0  0  0  0
 91102  2  0  0  0  0
102103  1  0  0  0  0
 90104  1  0  0  0  0
104105  2  0  0  0  0
105106  1  0  0  0  0
105107  1  0  0  0  0
107108  2  0  0  0  0
108109  1  0  0  0  0
109110  2  0  0  0  0
110111  1  0  0  0  0
111112  2  0  0  0  0
112113  1  0  0  0  0
113114  2  0  0  0  0
114115  1  0  0  0  0
115116  1  0  0  0  0
116117  1  0  0  0  0
114118  1  0  0  0  0
118119  1  0  0  0  0
118120  2  0  0  0  0
110121  1  0  0  0  0
121122  2  0  0  0  0
122123  1  0  0  0  0
123124  1  0  0  0  0
124125  2  0  0  0  0
125126  1  0  0  0  0
126127  2  0  0  0  0
127128  1  0  0  0  0
128129  1  0  0  0  0
129130  1  0  0  0  0
127131  1  0  0  0  0
131132  2  0  0  0  0
131133  1  0  0  0  0
123134  2  0  0  0  0
134135  1  0  0  0  0
122136  1  0  0  0  0
136137  2  0  0  0  0
137138  1  0  0  0  0
 29  1  1  0  0  0  0
 39 33  2  0  0  0  0
 53 47  2  0  0  0  0
 67 61  2  0  0  0  0
103 75  1  0  0  0  0
135107  1  0  0  0  0
 28  3  1  0  0  0  0
 44 38  2  0  0  0  0
 58 52  2  0  0  0  0
 72 66  2  0  0  0  0
102 77  1  0  0  0  0
134109  1  0  0  0  0
 14  5  1  0  0  0  0
 32 15  1  0  0  0  0
 88 79  1  0  0  0  0
106 89  1  0  0  0  0
120111  1  0  0  0  0
138121  1  0  0  0  0
 26 18  1  0  0  0  0
100 92  1  0  0  0  0
132124  1  0  0  0  0
  1139  1  0  0  0  0
  2140  1  0  0  0  0
  6141  1  0  0  0  0
  7142  1  0  0  0  0
 10143  1  0  0  0  0
 10144  1  0  0  0  0
 11145  1  0  0  0  0
 11146  1  0  0  0  0
 11147  1  0  0  0  0
 14148  1  0  0  0  0
 19149  1  0  0  0  0
 20150  1  0  0  0  0
 23151  1  0  0  0  0
 23152  1  0  0  0  0
 24153  1  0  0  0  0
 24154  1  0  0  0  0
 24155  1  0  0  0  0
 26156  1  0  0  0  0
 30157  1  0  0  0  0
 35158  1  0  0  0  0
 35159  1  0  0  0  0
 35160  1  0  0  0  0
 43161  1  0  0  0  0
 43162  1  0  0  0  0
 43163  1  0  0  0  0
 45164  1  0  0  0  0
 46165  1  0  0  0  0
 49166  1  0  0  0  0
 49167  1  0  0  0  0
 49168  1  0  0  0  0
 57169  1  0  0  0  0
 57170  1  0  0  0  0
 57171  1  0  0  0  0
 59172  1  0  0  0  0
 60173  1  0  0  0  0
 63174  1  0  0  0  0
 63175  1  0  0  0  0
 63176  1  0  0  0  0
 71177  1  0  0  0  0
 71178  1  0  0  0  0
 71179  1  0  0  0  0
 73180  1  0  0  0  0
 74181  1  0  0  0  0
 76182  1  0  0  0  0
 80183  1  0  0  0  0
 81184  1  0  0  0  0
 84185  1  0  0  0  0
 84186  1  0  0  0  0
 85187  1  0  0  0  0
 85188  1  0  0  0  0
 85189  1  0  0  0  0
 88190  1  0  0  0  0
 93191  1  0  0  0  0
 94192  1  0  0  0  0
 97193  1  0  0  0  0
 97194  1  0  0  0  0
 98195  1  0  0  0  0
 98196  1  0  0  0  0
 98197  1  0  0  0  0
100198  1  0  0  0  0
104199  1  0  0  0  0
108200  1  0  0  0  0
112201  1  0  0  0  0
113202  1  0  0  0  0
116203  1  0  0  0  0
116204  1  0  0  0  0
117205  1  0  0  0  0
117206  1  0  0  0  0
117207  1  0  0  0  0
120208  1  0  0  0  0
125209  1  0  0  0  0
126210  1  0  0  0  0
129211  1  0  0  0  0
129212  1  0  0  0  0
130213  1  0  0  0  0
130214  1  0  0  0  0
130215  1  0  0  0  0
132216  1  0  0  0  0
136217  1  0  0  0  0
137218  1  0  0  0  0
M  END
