110

C         11.48120       -2.10910        3.54900
O         10.69360       -2.52730        4.56420
C          9.43110       -2.31930        4.11510
C          9.53400       -1.76770        2.80700
N         10.87750       -1.66230        2.51270
C          8.41980       -1.43470        2.05780
C          7.20740       -1.68160        2.68450
C          7.13190       -2.23440        3.99690
C          8.23320       -2.57240        4.75690
O          5.82280       -2.34550        4.31480
C          5.15780       -1.87010        3.20970
N          5.93160       -1.47550        2.24870
C          3.73250       -1.83110        3.17000
N          2.91370       -2.14340        4.22290
C          3.30670       -2.56050        5.53990
C          1.56070       -1.96160        3.88850
O          0.65310       -2.14990        4.68140
C          1.57870       -1.56920        2.50300
C          2.93410       -1.47470        2.09610
C          2.96530       -1.08850        0.69250
O          3.86550       -0.89890       -0.08910
N          1.60810       -0.96100        0.35560
C          1.20790       -0.60000       -0.97840
C          0.76340       -1.26400        1.40510
C         -0.62550       -1.12630        1.25400
C         -1.68130       -1.54780        2.02200
C         -1.79970       -2.49850        3.04970
N         -2.99850       -2.59310        3.74420
C         -4.11250       -1.68990        3.64720
C         -3.03880       -3.68160        4.62130
O         -3.97090       -3.93490        5.35050
C         -1.75820       -4.32860        4.41850
C         -0.99670       -3.55940        3.48990
C          0.23200       -4.28110        3.25940
O          1.18420       -4.08160        2.52750
N          0.15890       -5.40020        4.11810
C          1.15960       -6.43050        4.12540
C         -1.06160       -5.47600        4.72500
C         -1.61710       -6.69270        5.32460
C         -2.62450       -7.29780        4.68890
C         -3.00010       -6.73580        3.39340
O         -1.96540       -6.56190        2.50680
C         -2.44270       -5.69480        1.59120
C         -3.80460       -5.43660        1.92360
N         -4.09970       -6.16270        3.05490
C         -4.54410       -4.46930        1.26780
C         -3.83680       -3.75610        0.30900
C         -2.47850       -4.04770       -0.00820
C         -1.73950       -5.04120        0.60110
O         -2.06220       -3.12830       -0.90460
C         -3.13720       -2.31880       -1.08300
N         -4.19560       -2.64740       -0.41220
C         -2.96640       -1.15970       -1.91180
O         -4.02410       -0.36850       -2.21530
C         -3.49500        0.63810       -2.94840
C         -2.09310        0.39720       -3.05510
N         -1.82320       -0.75810       -2.37300
C         -1.24210        1.24860       -3.74060
C         -1.86690        2.34700       -4.30790
C         -3.27250        2.57050       -4.18530
C         -4.13280        1.72850       -3.50770
O         -3.55540        3.71540       -4.83350
C         -2.35960        4.14820       -5.31870
N         -1.34850        3.37920       -5.03790
C         -2.33280        5.37200       -6.05260
N         -1.20170        5.88960       -6.62290
C          0.11000        5.30560       -6.59950
C         -1.46420        7.11790       -7.27250
O         -0.61700        7.76320       -7.85060
C         -2.87660        7.32980       -7.05620
C         -3.38550        6.23530       -6.30330
C         -4.79680        6.46740       -6.08940
O         -5.66100        5.84220       -5.51910
N         -5.04450        7.70700       -6.73720
C         -6.37120        8.25790       -6.73080
C         -3.90880        8.22070       -7.30890
C         -3.73550        9.44370       -8.04280
C         -4.62750       10.39340       -8.32720
H         12.54390       -2.17790        3.67650
H          8.48060       -1.01870        1.06860
H          8.16880       -2.98960        5.74690
H          3.93070       -1.80670        6.02280
H          3.85460       -3.50310        5.50100
H          2.38780       -2.69280        6.11250
H          2.11380       -0.60240       -1.58480
H          0.77250        0.40240       -1.00090
H          0.48780       -1.30930       -1.38780
H         -0.90800       -0.54930        0.38080
H         -2.63180       -1.10540        1.74460
H         -4.83380       -2.01210        4.39890
H         -3.80500       -0.66390        3.85590
H         -4.58270       -1.74190        2.66190
H          1.96560       -6.10070        3.46980
H          1.54790       -6.58130        5.13420
H          0.75000       -7.37180        3.75190
H         -1.23160       -7.04870        6.26810
H         -3.17050       -8.13560        5.08840
H         -5.56180       -4.24260        1.53060
H         -0.70070       -5.22180        0.38810
H         -0.18520        1.06950       -3.82540
H         -5.18980        1.90960       -3.42420
H          0.10230        4.32220       -7.06960
H          0.46350        5.19360       -5.57480
H          0.76500        5.97960       -7.15150
H         -6.75340        8.37480       -7.74630
H         -6.39760        9.21590       -6.20830
H         -6.99900        7.54450       -6.19380
H         -2.71430        9.56050       -8.38440
H         -5.65780       10.36220       -8.02480
H         -4.32900       11.26030       -8.89140
