
  xtb     03042209433D
 energy: -411.112734547423 gnorm: 0.004410583745 xtb: 6.4.1 (unknown)
236261  0     0  0            999 V2000
    4.3619    1.2994    0.9486 C   0  0  0  0  0  0  0  0  0  0  0  0
    4.3813    1.7104   -0.3351 C   0  0  0  0  0  0  0  0  0  0  0  0
    3.4599    1.0088   -1.1704 C   0  0  0  0  0  0  0  0  0  0  0  0
    3.2928    1.1222   -2.5701 C   0  0  0  0  0  0  0  0  0  0  0  0
    4.2194    2.0146   -3.2783 C   0  0  0  0  0  0  0  0  0  0  0  0
    5.0596    1.5264   -4.2737 C   0  0  0  0  0  0  0  0  0  0  0  0
    6.1294    2.2705   -4.7347 C   0  0  0  0  0  0  0  0  0  0  0  0
    6.3896    3.5364   -4.2202 C   0  0  0  0  0  0  0  0  0  0  0  0
    7.7967    4.5134   -4.6076 S   0  0  0  0  0  0  0  0  0  0  0  0
    8.3504    3.8364   -6.2152 C   0  0  0  0  0  0  0  0  0  0  0  0
    9.2532    4.8552   -6.8830 C   0  0  0  0  0  0  0  0  0  0  0  0
    5.4836    4.0460   -3.2882 C   0  0  0  0  0  0  0  0  0  0  0  0
    5.6720    5.2942   -2.8018 F   0  0  0  0  0  0  0  0  0  0  0  0
    4.4140    3.3195   -2.8241 C   0  0  0  0  0  0  0  0  0  0  0  0
    2.3561    0.2869   -3.1570 C   0  0  0  0  0  0  0  0  0  0  0  0
    1.6209   -0.6585   -2.3966 C   0  0  0  0  0  0  0  0  0  0  0  0
    1.8887   -0.8760   -1.0284 C   0  0  0  0  0  0  0  0  0  0  0  0
    1.3682   -2.0613   -0.3468 C   0  0  0  0  0  0  0  0  0  0  0  0
    0.9108   -2.0488    0.9690 C   0  0  0  0  0  0  0  0  0  0  0  0
    0.3562   -3.1741    1.5474 C   0  0  0  0  0  0  0  0  0  0  0  0
    0.2511   -4.3686    0.8422 C   0  0  0  0  0  0  0  0  0  0  0  0
   -0.5382   -5.8376    1.3922 S   0  0  0  0  0  0  0  0  0  0  0  0
   -1.3831   -5.3381    2.9239 C   0  0  0  0  0  0  0  0  0  0  0  0
   -0.4743   -5.3651    4.1395 C   0  0  0  0  0  0  0  0  0  0  0  0
    0.8118   -4.3960   -0.4368 C   0  0  0  0  0  0  0  0  0  0  0  0
    1.3541   -3.2826   -1.0286 C   0  0  0  0  0  0  0  0  0  0  0  0
    0.8022   -5.5520   -1.1336 F   0  0  0  0  0  0  0  0  0  0  0  0
    2.7624    0.0220   -0.4353 C   0  0  0  0  0  0  0  0  0  0  0  0
    3.2464    0.0126    1.2397 S   0  0  0  0  0  0  0  0  0  0  0  0
    0.6789   -1.3485   -3.1759 C   0  0  0  0  0  0  0  0  0  0  0  0
    0.7131   -1.0768   -4.5254 C   0  0  0  0  0  0  0  0  0  0  0  0
    1.9092    0.1778   -4.8598 S   0  0  0  0  0  0  0  0  0  0  0  0
   -0.0924   -1.8078   -5.4365 C   0  0  0  0  0  0  0  0  0  0  0  0
   -1.4986   -2.5666   -4.6557 S   0  0  0  0  0  0  0  0  0  0  0  0
   -1.7316   -3.6273   -5.9945 C   0  0  0  0  0  0  0  0  0  0  0  0
   -2.5361   -4.6570   -6.3906 C   0  0  0  0  0  0  0  0  0  0  0  0
   -2.1223   -5.1106   -7.6960 C   0  0  0  0  0  0  0  0  0  0  0  0
   -3.0140   -6.1113   -7.8608 C   0  0  0  0  0  3  0  0  0  0  0  0
   -3.8299   -5.8515   -6.2527 S   0  0  0  0  0  0  0  0  0  0  0  0
   -0.9646   -4.2994   -8.1913 C   0  0  0  0  0  0  0  0  0  0  0  0
   -0.7777   -3.3696   -7.0155 C   0  0  0  0  0  0  0  0  0  0  0  0
    0.1053   -2.3221   -6.7413 C   0  0  0  0  0  0  0  0  0  0  0  0
    1.0096   -1.9587   -7.8018 C   0  0  0  0  0  0  0  0  0  0  0  0
    1.3528   -0.7251   -8.2426 C   0  0  0  0  0  0  0  0  0  0  0  0
    1.9358   -0.5093   -9.5140 C   0  0  0  0  0  0  0  0  0  0  0  0
    2.4974   -1.8339  -10.5233 S   0  0  0  0  0  0  0  0  0  0  0  0
    2.7971   -0.7388  -11.8279 C   0  0  0  0  0  0  0  0  0  0  0  0
    3.2474   -0.7509  -13.1115 C   0  0  0  0  0  0  0  0  0  0  0  0
    3.2228    0.5903  -13.6502 C   0  0  0  0  0  0  0  0  0  0  0  0
    3.6868    0.3230  -14.8885 C   0  0  0  0  0  3  0  0  0  0  0  0
    3.8695   -1.4654  -14.6036 S   0  0  0  0  0  0  0  0  0  0  0  0
    2.7134    1.5603  -12.6286 C   0  0  0  0  0  0  0  0  0  0  0  0
    2.4650    0.6151  -11.4796 C   0  0  0  0  0  0  0  0  0  0  0  0
    1.9987    0.7299  -10.1966 C   0  0  0  0  0  0  0  0  0  0  0  0
    1.5423    1.8995   -9.4459 C   0  0  0  0  0  0  0  0  0  0  0  0
    0.2710    2.3127   -9.4000 C   0  0  0  0  0  0  0  0  0  0  0  0
   -0.1977    3.0105   -8.2297 C   0  0  0  0  0  0  0  0  0  0  0  0
    0.5659    3.6428   -7.2983 C   0  0  0  0  0  0  0  0  0  0  0  0
    0.0415    3.5682   -5.9833 C   0  0  0  0  0  0  0  0  0  0  0  0
    0.7216    3.8565   -4.7849 C   0  0  0  0  0  0  0  0  0  0  0  0
    2.0448    4.4875   -4.8886 C   0  0  0  0  0  0  0  0  0  0  0  0
    2.3170    5.7224   -4.3118 C   0  0  0  0  0  0  0  0  0  0  0  0
    3.4639    6.4239   -4.6371 C   0  0  0  0  0  0  0  0  0  0  0  0
    4.3749    5.9166   -5.5570 C   0  0  0  0  0  0  0  0  0  0  0  0
    5.7851    6.7711   -6.1714 S   0  0  0  0  0  0  0  0  0  0  0  0
    6.1774    7.9837   -4.8662 C   0  0  0  0  0  0  0  0  0  0  0  0
    5.5532    9.3428   -5.1195 C   0  0  0  0  0  0  0  0  0  0  0  0
    4.1281    4.6380   -6.0591 C   0  0  0  0  0  0  0  0  0  0  0  0
    5.0064    4.0839   -6.9279 F   0  0  0  0  0  0  0  0  0  0  0  0
    3.0066    3.9188   -5.7247 C   0  0  0  0  0  0  0  0  0  0  0  0
    0.0929    3.4683   -3.6142 C   0  0  0  0  0  0  0  0  0  0  0  0
   -1.2066    2.9029   -3.6084 C   0  0  0  0  0  0  0  0  0  0  0  0
   -1.9245    2.7010   -4.7973 C   0  0  0  0  0  0  0  0  0  0  0  0
   -3.3075    2.2121   -4.7717 C   0  0  0  0  0  0  0  0  0  0  0  0
   -4.2522    2.8695   -3.9826 C   0  0  0  0  0  0  0  0  0  0  0  0
   -5.5734    2.4792   -3.9959 C   0  0  0  0  0  0  0  0  0  0  0  0
   -6.0031    1.4093   -4.7784 C   0  0  0  0  0  0  0  0  0  0  0  0
   -7.7173    0.9742   -4.7054 S   0  0  0  0  0  0  0  0  0  0  0  0
   -8.1554    0.7020   -6.4625 C   0  0  0  0  0  0  0  0  0  0  0  0
   -7.9283    1.9454   -7.2983 C   0  0  0  0  0  0  0  0  0  0  0  0
   -5.0410    0.7321   -5.5219 C   0  0  0  0  0  0  0  0  0  0  0  0
   -3.7186    1.1287   -5.5398 C   0  0  0  0  0  0  0  0  0  0  0  0
   -5.3747   -0.3496   -6.2579 F   0  0  0  0  0  0  0  0  0  0  0  0
   -1.2413    2.9687   -5.9698 C   0  0  0  0  0  0  0  0  0  0  0  0
   -1.7538    2.5206   -7.5763 S   0  0  0  0  0  0  0  0  0  0  0  0
   -1.5691    2.4182   -2.3321 C   0  0  0  0  0  0  0  0  0  0  0  0
   -0.5976    2.5695   -1.3885 C   0  0  0  0  0  0  0  0  0  0  0  0
    0.7948    3.4332   -2.0127 S   0  0  0  0  0  0  0  0  0  0  0  0
   -0.6530    1.9601   -0.0961 C   0  0  0  0  0  0  0  0  0  0  0  0
   -1.4240    0.8673    0.1759 C   0  0  0  0  0  0  0  0  0  0  0  0
   -1.2935    0.3859    1.4972 C   0  0  0  0  0  0  0  0  0  0  0  0
   -1.9148   -0.7444    2.0610 C   0  0  0  0  0  0  0  0  0  0  0  0
   -2.6190   -1.7372    1.2427 C   0  0  0  0  0  0  0  0  0  0  0  0
   -2.1227   -2.1033   -0.0096 C   0  0  0  0  0  0  0  0  0  0  0  0
   -2.6788   -3.1330   -0.7401 C   0  0  0  0  0  0  0  0  0  0  0  0
   -3.7594   -3.8576   -0.2500 C   0  0  0  0  0  0  0  0  0  0  0  0
   -4.5415   -5.2042   -1.0628 S   0  0  0  0  0  0  0  0  0  0  0  0
   -3.6925   -5.3301   -2.6728 C   0  0  0  0  0  0  0  0  0  0  0  0
   -2.3934   -6.1067   -2.5907 C   0  0  0  0  0  0  0  0  0  0  0  0
   -4.2653   -3.4693    0.9927 C   0  0  0  0  0  0  0  0  0  0  0  0
   -5.3164   -4.1381    1.5099 F   0  0  0  0  0  0  0  0  0  0  0  0
   -3.7300   -2.4329    1.7232 C   0  0  0  0  0  0  0  0  0  0  0  0
   -1.7030   -0.9261    3.4221 C   0  0  0  0  0  0  0  0  0  0  0  0
   -0.8724   -0.0893    4.2103 C   0  0  0  0  0  0  0  0  0  0  0  0
   -0.2064    1.0001    3.6216 C   0  0  0  0  0  0  0  0  0  0  0  0
    0.6535    1.8897    4.4091 C   0  0  0  0  0  0  0  0  0  0  0  0
    0.2051    2.4427    5.6054 C   0  0  0  0  0  0  0  0  0  0  0  0
    1.0028    3.2952    6.3436 C   0  0  0  0  0  0  0  0  0  0  0  0
    2.2813    3.6299    5.9106 C   0  0  0  0  0  0  0  0  0  0  0  0
    3.4104    4.6813    6.7561 S   0  0  0  0  0  0  0  0  0  0  0  0
    2.4156    5.4457    8.0826 C   0  0  0  0  0  0  0  0  0  0  0  0
    1.4466    6.4854    7.5517 C   0  0  0  0  0  0  0  0  0  0  0  0
    2.7168    3.0651    4.7099 C   0  0  0  0  0  0  0  0  0  0  0  0
    1.9319    2.2174    3.9636 C   0  0  0  0  0  0  0  0  0  0  0  0
    3.9566    3.3518    4.2615 F   0  0  0  0  0  0  0  0  0  0  0  0
   -0.4254    1.2006    2.2659 C   0  0  0  0  0  0  0  0  0  0  0  0
    0.2741    2.4741    1.2918 S   0  0  0  0  0  0  0  0  0  0  0  0
   -0.7726   -0.5472    5.5530 C   0  0  0  0  0  0  0  0  0  0  0  0
   -1.5014   -1.6690    5.8021 C   0  0  0  0  0  0  0  0  0  0  0  0
   -2.3493   -2.2328    4.3763 S   0  0  0  0  0  0  0  0  0  0  0  0
   -1.6912   -2.4086    7.0067 C   0  0  0  0  0  0  0  0  0  0  0  0
   -2.4585   -3.5274    7.1266 C   0  0  0  0  0  0  0  0  0  0  0  0
   -2.4987   -4.0577    8.4389 C   0  0  0  0  0  0  0  0  0  0  0  0
   -3.1923   -5.1980    8.8716 C   0  0  0  0  0  0  0  0  0  0  0  0
   -3.9270   -6.0086    7.8922 C   0  0  0  0  0  0  0  0  0  0  0  0
   -5.2848   -6.2869    8.0300 C   0  0  0  0  0  0  0  0  0  0  0  0
   -5.9730   -6.9282    7.0216 C   0  0  0  0  0  0  0  0  0  0  0  0
   -5.3369   -7.3330    5.8477 C   0  0  0  0  0  0  0  0  0  0  0  0
   -6.3105   -8.0846    4.5847 S   0  0  0  0  0  0  0  0  0  0  0  0
   -5.5242   -7.4761    3.0341 C   0  0  0  0  0  0  0  0  0  0  0  0
   -6.5580   -7.4542    1.9267 C   0  0  0  0  0  0  0  0  0  0  0  0
   -3.9625   -7.1276    5.7671 C   0  0  0  0  0  0  0  0  0  0  0  0
   -3.2541   -7.5721    4.7029 F   0  0  0  0  0  0  0  0  0  0  0  0
   -3.2669   -6.4634    6.7545 C   0  0  0  0  0  0  0  0  0  0  0  0
   -3.1318   -5.4785   10.2265 C   0  0  0  0  0  0  0  0  0  0  0  0
   -2.3822   -4.6987   11.1419 C   0  0  0  0  0  0  0  0  0  0  0  0
   -1.6653   -3.5748   10.7003 C   0  0  0  0  0  0  0  0  0  0  0  0
   -0.8603   -2.7632   11.6219 C   0  0  0  0  0  0  0  0  0  0  0  0
    0.0714   -3.3521   12.4712 C   0  0  0  0  0  0  0  0  0  0  0  0
    0.8323   -2.5905   13.3375 C   0  0  0  0  0  0  0  0  0  0  0  0
    0.6815   -1.2099   13.3917 C   0  0  0  0  0  0  0  0  0  0  0  0
    1.5879   -0.1221   14.4401 S   0  0  0  0  0  0  0  0  0  0  0  0
    2.2887   -1.2208   15.7202 C   0  0  0  0  0  0  0  0  0  0  0  0
    1.2219   -1.7881   16.6367 C   0  0  0  0  0  0  0  0  0  0  0  0
   -0.2449   -0.6309   12.5219 C   0  0  0  0  0  0  0  0  0  0  0  0
   -1.0046   -1.3774   11.6509 C   0  0  0  0  0  0  0  0  0  0  0  0
   -0.4092    0.7071   12.5372 F   0  0  0  0  0  0  0  0  0  0  0  0
   -1.7553   -3.2697    9.3492 C   0  0  0  0  0  0  0  0  0  0  0  0
   -0.9736   -1.9337    8.5345 S   0  0  0  0  0  0  0  0  0  0  0  0
   -2.5007   -5.2059   12.4705 C   0  0  0  0  0  0  0  0  0  0  0  0
   -3.2675   -6.3128   12.5461 C   0  0  0  0  0  0  0  0  0  0  0  0
   -3.9111   -6.8202   11.0225 S   0  0  0  0  0  0  0  0  0  0  0  0
    4.9417    1.6754    1.7690 H   0  0  0  0  0  0  0  0  0  0  0  0
    5.0437    2.4800   -0.6823 H   0  0  0  0  0  0  0  0  0  0  0  0
    4.9087    0.5281   -4.6565 H   0  0  0  0  0  0  0  0  0  0  0  0
    6.7837    1.8456   -5.4781 H   0  0  0  0  0  0  0  0  0  0  0  0
    8.8806    2.9015   -6.0290 H   0  0  0  0  0  0  0  0  0  0  0  0
    7.4601    3.6585   -6.8149 H   0  0  0  0  0  0  0  0  0  0  0  0
    8.7042    5.7761   -7.0654 H   0  0  0  0  0  0  0  0  0  0  0  0
   10.1133    5.0794   -6.2551 H   0  0  0  0  0  0  0  0  0  0  0  0
    9.6081    4.4652   -7.8344 H   0  0  0  0  0  0  0  0  0  0  0  0
    3.7406    3.7647   -2.1086 H   0  0  0  0  0  0  0  0  0  0  0  0
    0.9420   -1.1366    1.5423 H   0  0  0  0  0  0  0  0  0  0  0  0
   -0.0155   -3.1044    2.5551 H   0  0  0  0  0  0  0  0  0  0  0  0
   -1.8220   -4.3556    2.7508 H   0  0  0  0  0  0  0  0  0  0  0  0
   -2.1861   -6.0661    3.0296 H   0  0  0  0  0  0  0  0  0  0  0  0
   -0.2182   -6.3878    4.3974 H   0  0  0  0  0  0  0  0  0  0  0  0
   -0.9852   -4.9094    4.9857 H   0  0  0  0  0  0  0  0  0  0  0  0
    0.4469   -4.8145    3.9615 H   0  0  0  0  0  0  0  0  0  0  0  0
    1.7828   -3.3774   -2.0139 H   0  0  0  0  0  0  0  0  0  0  0  0
    0.0051   -2.0703   -2.7530 H   0  0  0  0  0  0  0  0  0  0  0  0
   -3.2543   -6.8457   -8.5993 H   0  0  0  0  0  0  0  0  0  0  0  0
   -0.0760   -4.9082   -8.3761 H   0  0  0  0  0  0  0  0  0  0  0  0
   -1.1967   -3.7546   -9.1094 H   0  0  0  0  0  0  0  0  0  0  0  0
    1.2624   -2.7934   -8.4460 H   0  0  0  0  0  0  0  0  0  0  0  0
    1.0839    0.1535   -7.6724 H   0  0  0  0  0  0  0  0  0  0  0  0
    3.9072    0.8636  -15.7842 H   0  0  0  0  0  0  0  0  0  0  0  0
    3.4448    2.3304  -12.3716 H   0  0  0  0  0  0  0  0  0  0  0  0
    1.7956    2.0617  -12.9452 H   0  0  0  0  0  0  0  0  0  0  0  0
    2.2565    2.2775   -8.7239 H   0  0  0  0  0  0  0  0  0  0  0  0
   -0.4698    1.9202  -10.0827 H   0  0  0  0  0  0  0  0  0  0  0  0
    1.5117    4.0904   -7.5377 H   0  0  0  0  0  0  0  0  0  0  0  0
    1.6013    6.1634   -3.6339 H   0  0  0  0  0  0  0  0  0  0  0  0
    3.6314    7.3889   -4.1876 H   0  0  0  0  0  0  0  0  0  0  0  0
    5.8749    7.5507   -3.9148 H   0  0  0  0  0  0  0  0  0  0  0  0
    7.2656    8.0511   -4.8851 H   0  0  0  0  0  0  0  0  0  0  0  0
    5.8990    9.7468   -6.0684 H   0  0  0  0  0  0  0  0  0  0  0  0
    4.4672    9.2824   -5.1525 H   0  0  0  0  0  0  0  0  0  0  0  0
    5.8384   10.0299   -4.3253 H   0  0  0  0  0  0  0  0  0  0  0  0
    2.8814    2.9192   -6.1119 H   0  0  0  0  0  0  0  0  0  0  0  0
   -3.9473    3.7140   -3.3827 H   0  0  0  0  0  0  0  0  0  0  0  0
   -6.3057    3.0043   -3.4024 H   0  0  0  0  0  0  0  0  0  0  0  0
   -9.2136    0.4438   -6.4199 H   0  0  0  0  0  0  0  0  0  0  0  0
   -7.5972   -0.1524   -6.8385 H   0  0  0  0  0  0  0  0  0  0  0  0
   -8.4911    2.7843   -6.8949 H   0  0  0  0  0  0  0  0  0  0  0  0
   -8.2540    1.7654   -8.3207 H   0  0  0  0  0  0  0  0  0  0  0  0
   -6.8732    2.2136   -7.3158 H   0  0  0  0  0  0  0  0  0  0  0  0
   -3.0172    0.5638   -6.1338 H   0  0  0  0  0  0  0  0  0  0  0  0
   -2.5070    1.9301   -2.1424 H   0  0  0  0  0  0  0  0  0  0  0  0
   -2.0772    0.4223   -0.5499 H   0  0  0  0  0  0  0  0  0  0  0  0
   -1.2547   -1.6047   -0.4071 H   0  0  0  0  0  0  0  0  0  0  0  0
   -2.2473   -3.3762   -1.6968 H   0  0  0  0  0  0  0  0  0  0  0  0
   -4.4109   -5.8510   -3.3063 H   0  0  0  0  0  0  0  0  0  0  0  0
   -3.5567   -4.3231   -3.0672 H   0  0  0  0  0  0  0  0  0  0  0  0
   -2.5807   -7.1176   -2.2367 H   0  0  0  0  0  0  0  0  0  0  0  0
   -1.9394   -6.1638   -3.5780 H   0  0  0  0  0  0  0  0  0  0  0  0
   -1.6868   -5.6392   -1.9103 H   0  0  0  0  0  0  0  0  0  0  0  0
   -4.2025   -2.1654    2.6546 H   0  0  0  0  0  0  0  0  0  0  0  0
   -0.7926    2.2231    5.9548 H   0  0  0  0  0  0  0  0  0  0  0  0
    0.6159    3.6932    7.2675 H   0  0  0  0  0  0  0  0  0  0  0  0
    1.9186    4.6567    8.6455 H   0  0  0  0  0  0  0  0  0  0  0  0
    3.1643    5.9088    8.7255 H   0  0  0  0  0  0  0  0  0  0  0  0
    0.7225    6.0390    6.8736 H   0  0  0  0  0  0  0  0  0  0  0  0
    0.9104    6.9473    8.3783 H   0  0  0  0  0  0  0  0  0  0  0  0
    1.9874    7.2593    7.0119 H   0  0  0  0  0  0  0  0  0  0  0  0
    2.3287    1.7996    3.0530 H   0  0  0  0  0  0  0  0  0  0  0  0
   -0.1650   -0.0735    6.3028 H   0  0  0  0  0  0  0  0  0  0  0  0
   -3.0078   -3.9484    6.3031 H   0  0  0  0  0  0  0  0  0  0  0  0
   -5.8100   -5.9581    8.9131 H   0  0  0  0  0  0  0  0  0  0  0  0
   -7.0321   -7.1104    7.1132 H   0  0  0  0  0  0  0  0  0  0  0  0
   -4.6956   -8.1392    2.7872 H   0  0  0  0  0  0  0  0  0  0  0  0
   -5.1546   -6.4715    3.2344 H   0  0  0  0  0  0  0  0  0  0  0  0
   -6.9768   -8.4453    1.7724 H   0  0  0  0  0  0  0  0  0  0  0  0
   -6.0901   -7.1182    1.0049 H   0  0  0  0  0  0  0  0  0  0  0  0
   -7.3642   -6.7684    2.1732 H   0  0  0  0  0  0  0  0  0  0  0  0
   -2.2029   -6.3254    6.6392 H   0  0  0  0  0  0  0  0  0  0  0  0
    0.2228   -4.4203   12.4362 H   0  0  0  0  0  0  0  0  0  0  0  0
    1.5553   -3.0847   13.9658 H   0  0  0  0  0  0  0  0  0  0  0  0
    2.8773   -1.9970   15.2327 H   0  0  0  0  0  0  0  0  0  0  0  0
    2.9657   -0.5675   16.2703 H   0  0  0  0  0  0  0  0  0  0  0  0
    1.6832   -2.4026   17.4071 H   0  0  0  0  0  0  0  0  0  0  0  0
    0.5141   -2.4001   16.0812 H   0  0  0  0  0  0  0  0  0  0  0  0
    0.6732   -0.9814   17.1174 H   0  0  0  0  0  0  0  0  0  0  0  0
   -1.7201   -0.8772   11.0178 H   0  0  0  0  0  0  0  0  0  0  0  0
   -2.0395   -4.7447   13.3247 H   0  0  0  0  0  0  0  0  0  0  0  0
   -3.5123   -6.8837   13.4203 H   0  0  0  0  0  0  0  0  0  0  0  0
  1  2  2  0  0  0  0
  2  3  1  0  0  0  0
  3  4  2  0  0  0  0
  4  5  1  0  0  0  0
  5  6  2  0  0  0  0
  6  7  1  0  0  0  0
  7  8  2  0  0  0  0
  8  9  1  0  0  0  0
  9 10  1  0  0  0  0
 10 11  1  0  0  0  0
  8 12  1  0  0  0  0
 12 13  1  0  0  0  0
 12 14  2  0  0  0  0
  4 15  1  0  0  0  0
 15 16  2  0  0  0  0
 16 17  1  0  0  0  0
 17 18  1  0  0  0  0
 18 19  2  0  0  0  0
 19 20  1  0  0  0  0
 20 21  2  0  0  0  0
 21 22  1  0  0  0  0
 22 23  1  0  0  0  0
 23 24  1  0  0  0  0
 21 25  1  0  0  0  0
 25 26  2  0  0  0  0
 25 27  1  0  0  0  0
 17 28  2  0  0  0  0
 28 29  1  0  0  0  0
 16 30  1  0  0  0  0
 30 31  2  0  0  0  0
 31 32  1  0  0  0  0
 31 33  1  0  0  0  0
 33 34  1  0  0  0  0
 34 35  1  0  0  0  0
 35 36  1  0  0  0  0
 36 37  2  0  0  0  0
 37 38  1  0  0  0  0
 38 39  1  0  0  0  0
 37 40  1  0  0  0  0
 40 41  1  0  0  0  0
 41 42  1  0  0  0  0
 42 43  1  0  0  0  0
 43 44  2  0  0  0  0
 44 45  1  0  0  0  0
 45 46  1  0  0  0  0
 46 47  1  0  0  0  0
 47 48  1  0  0  0  0
 48 49  2  0  0  0  0
 49 50  1  0  0  0  0
 50 51  1  0  0  0  0
 49 52  1  0  0  0  0
 52 53  1  0  0  0  0
 53 54  1  0  0  0  0
 54 55  1  0  0  0  0
 55 56  2  0  0  0  0
 56 57  1  0  0  0  0
 57 58  2  0  0  0  0
 58 59  1  0  0  0  0
 59 60  2  0  0  0  0
 60 61  1  0  0  0  0
 61 62  2  0  0  0  0
 62 63  1  0  0  0  0
 63 64  2  0  0  0  0
 64 65  1  0  0  0  0
 65 66  1  0  0  0  0
 66 67  1  0  0  0  0
 64 68  1  0  0  0  0
 68 69  1  0  0  0  0
 68 70  2  0  0  0  0
 60 71  1  0  0  0  0
 71 72  2  0  0  0  0
 72 73  1  0  0  0  0
 73 74  1  0  0  0  0
 74 75  2  0  0  0  0
 75 76  1  0  0  0  0
 76 77  2  0  0  0  0
 77 78  1  0  0  0  0
 78 79  1  0  0  0  0
 79 80  1  0  0  0  0
 77 81  1  0  0  0  0
 81 82  2  0  0  0  0
 81 83  1  0  0  0  0
 73 84  2  0  0  0  0
 84 85  1  0  0  0  0
 72 86  1  0  0  0  0
 86 87  2  0  0  0  0
 87 88  1  0  0  0  0
 87 89  1  0  0  0  0
 89 90  2  0  0  0  0
 90 91  1  0  0  0  0
 91 92  2  0  0  0  0
 92 93  1  0  0  0  0
 93 94  2  0  0  0  0
 94 95  1  0  0  0  0
 95 96  2  0  0  0  0
 96 97  1  0  0  0  0
 97 98  1  0  0  0  0
 98 99  1  0  0  0  0
 96100  1  0  0  0  0
100101  1  0  0  0  0
100102  2  0  0  0  0
 92103  1  0  0  0  0
103104  2  0  0  0  0
104105  1  0  0  0  0
105106  1  0  0  0  0
106107  2  0  0  0  0
107108  1  0  0  0  0
108109  2  0  0  0  0
109110  1  0  0  0  0
110111  1  0  0  0  0
111112  1  0  0  0  0
109113  1  0  0  0  0
113114  2  0  0  0  0
113115  1  0  0  0  0
105116  2  0  0  0  0
116117  1  0  0  0  0
104118  1  0  0  0  0
118119  2  0  0  0  0
119120  1  0  0  0  0
119121  1  0  0  0  0
121122  2  0  0  0  0
122123  1  0  0  0  0
123124  2  0  0  0  0
124125  1  0  0  0  0
125126  2  0  0  0  0
126127  1  0  0  0  0
127128  2  0  0  0  0
128129  1  0  0  0  0
129130  1  0  0  0  0
130131  1  0  0  0  0
128132  1  0  0  0  0
132133  1  0  0  0  0
132134  2  0  0  0  0
124135  1  0  0  0  0
135136  2  0  0  0  0
136137  1  0  0  0  0
137138  1  0  0  0  0
138139  2  0  0  0  0
139140  1  0  0  0  0
140141  2  0  0  0  0
141142  1  0  0  0  0
142143  1  0  0  0  0
143144  1  0  0  0  0
141145  1  0  0  0  0
145146  2  0  0  0  0
145147  1  0  0  0  0
137148  2  0  0  0  0
148149  1  0  0  0  0
136150  1  0  0  0  0
150151  2  0  0  0  0
151152  1  0  0  0  0
 29  1  1  0  0  0  0
 42 33  2  0  0  0  0
 54 45  2  0  0  0  0
 85 57  1  0  0  0  0
117 89  1  0  0  0  0
149121  1  0  0  0  0
 28  3  1  0  0  0  0
 41 35  2  0  0  0  0
 53 47  2  0  0  0  0
 84 59  1  0  0  0  0
116 91  1  0  0  0  0
148123  1  0  0  0  0
 14  5  1  0  0  0  0
 32 15  1  0  0  0  0
 39 36  1  0  0  0  0
 51 48  1  0  0  0  0
 70 61  1  0  0  0  0
 88 71  1  0  0  0  0
102 93  1  0  0  0  0
120103  1  0  0  0  0
134125  1  0  0  0  0
152135  1  0  0  0  0
 26 18  1  0  0  0  0
 82 74  1  0  0  0  0
114106  1  0  0  0  0
146138  1  0  0  0  0
  1153  1  0  0  0  0
  2154  1  0  0  0  0
  6155  1  0  0  0  0
  7156  1  0  0  0  0
 10157  1  0  0  0  0
 10158  1  0  0  0  0
 11159  1  0  0  0  0
 11160  1  0  0  0  0
 11161  1  0  0  0  0
 14162  1  0  0  0  0
 19163  1  0  0  0  0
 20164  1  0  0  0  0
 23165  1  0  0  0  0
 23166  1  0  0  0  0
 24167  1  0  0  0  0
 24168  1  0  0  0  0
 24169  1  0  0  0  0
 26170  1  0  0  0  0
 30171  1  0  0  0  0
 38172  1  0  0  0  0
 40173  1  0  0  0  0
 40174  1  0  0  0  0
 43175  1  0  0  0  0
 44176  1  0  0  0  0
 50177  1  0  0  0  0
 52178  1  0  0  0  0
 52179  1  0  0  0  0
 55180  1  0  0  0  0
 56181  1  0  0  0  0
 58182  1  0  0  0  0
 62183  1  0  0  0  0
 63184  1  0  0  0  0
 66185  1  0  0  0  0
 66186  1  0  0  0  0
 67187  1  0  0  0  0
 67188  1  0  0  0  0
 67189  1  0  0  0  0
 70190  1  0  0  0  0
 75191  1  0  0  0  0
 76192  1  0  0  0  0
 79193  1  0  0  0  0
 79194  1  0  0  0  0
 80195  1  0  0  0  0
 80196  1  0  0  0  0
 80197  1  0  0  0  0
 82198  1  0  0  0  0
 86199  1  0  0  0  0
 90200  1  0  0  0  0
 94201  1  0  0  0  0
 95202  1  0  0  0  0
 98203  1  0  0  0  0
 98204  1  0  0  0  0
 99205  1  0  0  0  0
 99206  1  0  0  0  0
 99207  1  0  0  0  0
102208  1  0  0  0  0
107209  1  0  0  0  0
108210  1  0  0  0  0
111211  1  0  0  0  0
111212  1  0  0  0  0
112213  1  0  0  0  0
112214  1  0  0  0  0
112215  1  0  0  0  0
114216  1  0  0  0  0
118217  1  0  0  0  0
122218  1  0  0  0  0
126219  1  0  0  0  0
127220  1  0  0  0  0
130221  1  0  0  0  0
130222  1  0  0  0  0
131223  1  0  0  0  0
131224  1  0  0  0  0
131225  1  0  0  0  0
134226  1  0  0  0  0
139227  1  0  0  0  0
140228  1  0  0  0  0
143229  1  0  0  0  0
143230  1  0  0  0  0
144231  1  0  0  0  0
144232  1  0  0  0  0
144233  1  0  0  0  0
146234  1  0  0  0  0
150235  1  0  0  0  0
151236  1  0  0  0  0
M  END
