154

C          1.90100        2.18890        4.27530
C          0.74230        2.85930        3.80270
C         -0.40510        3.05820        4.59080
C         -0.44460        2.61120        5.99070
C         -0.27650        1.36100        6.39160
C         -1.51890        3.73570        4.06300
C         -1.50290        4.18010        2.70550
C         -0.32660        4.06950        1.97440
C          0.78620        3.41060        2.48480
C          1.96030        3.25260        1.70530
C          3.03320        2.56730        2.18300
C          3.00210        2.03680        3.48870
C         -2.68500        4.75660        2.14210
C         -3.71890        5.10300        2.97260
C         -3.71230        4.72030        4.32500
C         -2.67820        3.99650        4.83790
C         -2.86020        4.88760        0.69420
C         -2.64020        3.90150       -0.18270
C         -2.03190        2.61660        0.18220
C         -2.53250        1.80890        1.25430
C         -3.85900        1.86380        1.71800
C         -4.84120        2.63460        0.95590
C         -5.81800        3.38710        1.44590
C         -4.24490        1.09490        2.83830
C         -3.25850        0.35870        3.57550
C         -1.97120        0.28000        3.06140
C         -1.61810        0.90330        1.86910
C         -0.36680        0.64360        1.25630
C         -0.03440        1.24550        0.08180
C         -0.85430        2.26620       -0.42860
C         -3.64040       -0.28660        4.79780
C         -4.95430       -0.24940        5.19560
C         -5.94230        0.33180        4.38890
C         -5.59710        0.98960        3.24680
C         -2.69570       -0.90990        5.72700
C         -1.74500       -1.83420        5.54370
C         -1.39810       -2.54660        4.34060
S          0.28270       -3.01440        4.13920
C         -0.06660       -3.73710        2.60070
C         -1.43740       -3.65320        2.29790
C         -2.16870       -2.96060        3.29540
C         -1.87060       -4.23300        1.08750
C         -0.90540       -4.78480        0.23130
S         -1.63060       -5.38820       -1.23140
C         -3.19910       -4.93450       -0.66520
C         -3.18320       -4.34670        0.55110
C          0.46550       -4.79210        0.51800
C          0.87360       -4.29420        1.74100
C          1.44330       -5.35540       -0.42880
C          2.49480       -4.56340       -0.99240
C          2.58680       -3.16760       -0.86410
C          1.50250       -2.36130       -0.27870
C          0.31550       -2.21840       -0.84370
C          3.71750       -2.47720       -1.34040
C          4.72750       -3.17860       -2.06370
C          4.61560       -4.55510       -2.20470
C          3.52670       -5.25720       -1.70090
C          3.42160       -6.65430       -1.91530
C          2.34810       -7.35230       -1.45920
C          1.36870       -6.69700       -0.69290
C          5.82980       -2.45310       -2.61740
C          6.01950       -1.14760       -2.25120
C          5.04490       -0.46330       -1.50430
C          3.89590       -1.08650       -1.12120
C          6.69130       -3.05840       -3.63930
C          6.21050       -3.59420       -4.76570
C          4.76770       -3.72030       -5.01190
C          3.89490       -2.59070       -4.89500
C          4.32840       -1.26600       -5.08860
C          5.64940       -1.04540       -5.68150
C          6.53670       -0.11620       -5.35030
C          3.44200       -0.19550       -4.84580
C          2.13160       -0.46290       -4.33270
C          1.68550       -1.77780       -4.29020
C          2.51990       -2.84380       -4.61250
C          2.02630       -4.17000       -4.69020
C          2.84690       -5.19390       -5.05180
C          4.22930       -4.97060       -5.17970
C          1.26750        0.63180       -3.99390
C          1.67600        1.91700       -4.25650
C          2.90880        2.16940       -4.87330
C          3.76520        1.14810       -5.16070
C         -0.01970        0.38770       -3.36700
C         -1.11690        1.11990       -3.62300
C         -2.39440        0.94910       -2.99960
S         -3.75100        1.86230       -3.63380
C         -4.82360        1.16700       -2.45930
C         -4.13360        0.28760       -1.60350
C         -2.76480        0.17400       -1.93630
C         -4.86220       -0.32770       -0.56520
C         -6.23820       -0.06380       -0.47740
S         -6.95430       -0.91620        0.85770
C         -5.41790       -1.57540        1.29020
C         -4.41500       -1.19460        0.46890
C         -6.90580        0.79130       -1.35430
C         -6.18980        1.42020       -2.34650
H          1.90280        1.80100        5.28210
H         -0.63510        3.38870        6.72200
H         -0.11340        0.55840        5.69270
H         -0.31320        1.08890        7.43340
H         -0.26960        4.50790        0.98930
H          1.97160        3.67980        0.71250
H          3.91830        2.43390        1.57790
H          3.87010        1.51480        3.86510
H         -4.58190        5.61230        2.56900
H         -4.56570        4.96220        4.94240
H         -2.72740        3.62720        5.85060
H         -3.30250        5.81320        0.34770
H         -2.80720        4.07890       -1.23830
H         -4.73370        2.56540       -0.11910
H         -6.50280        3.90180        0.79240
H         -5.94900        3.54850        2.50200
H         -1.21910       -0.29950        3.56900
H          0.30110       -0.05770        1.73590
H          0.88800        1.00720       -0.42710
H         -0.50360        2.84030       -1.27490
H         -5.24210       -0.72190        6.12470
H         -6.97850        0.26050        4.68540
H         -6.36710        1.42200        2.62970
H         -2.83370       -0.56550        6.74640
H         -1.12720       -2.09460        6.39580
H         -3.22670       -2.77720        3.24840
H         -4.04970       -5.14190       -1.28460
H         -4.06790       -4.01140        1.05940
H          1.91680       -4.31810        2.01580
H          1.73550       -1.82370        0.63280
H          0.05690       -2.74220       -1.74940
H         -0.44790       -1.60620       -0.39280
H          5.39620       -5.10290       -2.71050
H          4.21330       -7.14520       -2.46220
H          2.25360       -8.41210       -1.64310
H          0.56220       -7.27510       -0.26490
H          6.89370       -0.61690       -2.59740
H          5.19670        0.58260       -1.27880
H          3.12350       -0.52820       -0.61540
H          7.76040       -2.97700       -3.49260
H          6.88430       -4.04200       -5.48510
H          5.89330       -1.73000       -6.48600
H          6.38140        0.56630       -4.53280
H          7.47590       -0.03160       -5.87140
H          0.65310       -1.98660       -4.05440
H          0.98230       -4.34560       -4.47550
H          2.46140       -6.19640       -5.16360
H          4.88560       -5.81750       -5.32560
H          1.04130        2.74840       -3.98690
H          3.17720        3.18720       -5.11740
H          4.69620        1.36020       -5.65960
H         -0.06940       -0.42460       -2.65670
H         -1.07580        1.89220       -4.38060
H         -2.08010       -0.45210       -1.39670
H         -5.36930       -2.20240        2.15920
H         -3.39080       -1.49680        0.59240
H         -7.96490        0.95950       -1.24270
H         -6.67050        2.09970       -3.03250
