
  xtb     03012216003D
 energy: -454.086718741084 gnorm: 0.000422280066 xtb: 6.4.1 (unknown)
230256  0     0  0            999 V2000
    4.6261   -6.2537    6.1210 C   0  0  0  0  0  0  0  0  0  0  0  0
    4.5432   -6.0451    4.7912 C   0  0  0  0  0  0  0  0  0  0  0  0
    3.1991   -5.9607    4.3274 C   0  0  0  0  0  0  0  0  0  0  0  0
    2.7502   -5.8059    3.0072 C   0  0  0  0  0  0  0  0  0  0  0  0
    3.6621   -5.7114    1.8785 C   0  0  0  0  0  0  0  0  0  0  0  0
    4.9695   -4.5652    1.8478 S   0  0  0  0  0  0  0  0  0  0  0  0
    5.4687   -5.0468    0.2644 C   0  0  0  0  0  0  0  0  0  0  0  0
    6.5978   -4.3665   -0.4260 C   0  0  0  0  0  0  0  0  0  0  0  0
    6.1179   -3.1105   -1.1560 C   0  0  0  0  0  0  0  0  0  0  0  0
    4.6587   -6.0380   -0.2028 C   0  0  0  0  0  0  0  0  0  0  0  0
    4.8396   -6.7701   -1.7431 Cl  0  0  0  0  0  0  0  0  0  0  0  0
    3.6393   -6.4231    0.7093 C   0  0  0  0  0  0  0  0  0  0  0  0
    2.5660   -7.7179    0.3816 Cl  0  0  0  0  0  0  0  0  0  0  0  0
    1.3740   -5.7438    2.8200 C   0  0  0  0  0  0  0  0  0  0  0  0
    0.4409   -5.8944    3.8741 C   0  0  0  0  0  0  0  0  0  0  0  0
    0.8908   -6.1409    5.1853 C   0  0  0  0  0  0  0  0  0  0  0  0
   -0.0575   -6.4696    6.2368 C   0  0  0  0  0  0  0  0  0  0  0  0
   -1.2498   -7.7065    5.9329 S   0  0  0  0  0  0  0  0  0  0  0  0
   -1.9021   -7.5904    7.5297 C   0  0  0  0  0  0  0  0  0  0  0  0
   -3.0770   -8.4041    7.9466 C   0  0  0  0  0  0  0  0  0  0  0  0
   -4.3839   -7.7377    7.5093 C   0  0  0  0  0  0  0  0  0  0  0  0
   -1.2340   -6.6402    8.2415 C   0  0  0  0  0  0  0  0  0  0  0  0
   -0.1841   -6.0094    7.5192 C   0  0  0  0  0  0  0  0  0  0  0  0
    0.7415   -4.7441    8.2120 Cl  0  0  0  0  0  0  0  0  0  0  0  0
   -1.6049   -6.2273    9.8657 Cl  0  0  0  0  0  0  0  0  0  0  0  0
    2.2695   -6.1290    5.3842 C   0  0  0  0  0  0  0  0  0  0  0  0
    3.0895   -6.3764    6.8985 S   0  0  0  0  0  0  0  0  0  0  0  0
   -0.8919   -5.6953    3.4304 C   0  0  0  0  0  0  0  0  0  0  0  0
   -0.9823   -5.4140    2.0997 C   0  0  0  0  0  0  0  0  0  0  0  0
    0.5800   -5.4034    1.3138 S   0  0  0  0  0  0  0  0  0  0  0  0
   -2.1381   -5.0566    1.3366 C   0  0  0  0  0  0  0  0  0  0  0  0
   -3.3028   -4.5057    1.7859 C   0  0  0  0  0  0  0  0  0  0  0  0
   -4.1680   -4.0922    0.7421 C   0  0  0  0  0  0  0  0  0  0  0  0
   -5.3294   -3.3023    0.8565 C   0  0  0  0  0  0  0  0  0  0  0  0
   -5.8776   -2.9903    2.1678 C   0  0  0  0  0  0  0  0  0  0  0  0
   -6.3337   -4.2748    3.2494 S   0  0  0  0  0  0  0  0  0  0  0  0
   -6.8515   -3.1668    4.4758 C   0  0  0  0  0  0  0  0  0  0  0  0
   -7.3569   -3.6573    5.7875 C   0  0  0  0  0  0  0  0  0  0  0  0
   -6.2169   -4.2149    6.6423 C   0  0  0  0  0  0  0  0  0  0  0  0
   -6.6654   -1.8834    4.0590 C   0  0  0  0  0  0  0  0  0  0  0  0
   -7.0491   -0.5019    5.0022 Cl  0  0  0  0  0  0  0  0  0  0  0  0
   -6.1164   -1.7783    2.7509 C   0  0  0  0  0  0  0  0  0  0  0  0
   -5.7166   -0.2680    2.0464 Cl  0  0  0  0  0  0  0  0  0  0  0  0
   -5.8708   -2.8067   -0.3209 C   0  0  0  0  0  0  0  0  0  0  0  0
   -5.3545   -3.1525   -1.5969 C   0  0  0  0  0  0  0  0  0  0  0  0
   -4.2259   -3.9819   -1.7187 C   0  0  0  0  0  0  0  0  0  0  0  0
   -3.6545   -4.2974   -3.0174 C   0  0  0  0  0  0  0  0  0  0  0  0
   -3.3033   -3.0561   -4.1891 S   0  0  0  0  0  0  0  0  0  0  0  0
   -2.7175   -4.1995   -5.3487 C   0  0  0  0  0  0  0  0  0  0  0  0
   -2.2348   -3.7518   -6.6838 C   0  0  0  0  0  0  0  0  0  0  0  0
   -0.8741   -3.0611   -6.5840 C   0  0  0  0  0  0  0  0  0  0  0  0
   -2.7718   -5.4607   -4.8349 C   0  0  0  0  0  0  0  0  0  0  0  0
   -3.2988   -5.5202   -3.5156 C   0  0  0  0  0  0  0  0  0  0  0  0
   -3.5381   -7.0015   -2.6889 Cl  0  0  0  0  0  0  0  0  0  0  0  0
   -2.2769   -6.8662   -5.6859 Cl  0  0  0  0  0  0  0  0  0  0  0  0
   -3.6338   -4.3978   -0.5341 C   0  0  0  0  0  0  0  0  0  0  0  0
   -2.0882   -5.1794   -0.4063 S   0  0  0  0  0  0  0  0  0  0  0  0
   -6.0075   -2.4576   -2.6330 C   0  0  0  0  0  0  0  0  0  0  0  0
   -6.9145   -1.5316   -2.1958 C   0  0  0  0  0  0  0  0  0  0  0  0
   -7.1578   -1.6337   -0.4627 S   0  0  0  0  0  0  0  0  0  0  0  0
   -7.3015   -0.4035   -2.9729 C   0  0  0  0  0  0  0  0  0  0  0  0
   -7.8827    0.7743   -2.5857 C   0  0  0  0  0  0  0  0  0  0  0  0
   -7.6226    1.8473   -3.4710 C   0  0  0  0  0  0  0  0  0  0  0  0
   -7.8513    3.2275   -3.2406 C   0  0  0  0  0  0  0  0  0  0  0  0
   -8.7822    3.6428   -2.2118 C   0  0  0  0  0  0  0  0  0  0  0  0
   -8.4233    4.9129   -1.0790 S   0  0  0  0  0  0  0  0  0  0  0  0
   -9.9465    4.7373   -0.2786 C   0  0  0  0  0  0  0  0  0  0  0  0
  -10.2880    5.5513    0.9200 C   0  0  0  0  0  0  0  0  0  0  0  0
   -9.7961    4.8705    2.1998 C   0  0  0  0  0  0  0  0  0  0  0  0
  -10.6818    3.7503   -0.8657 C   0  0  0  0  0  0  0  0  0  0  0  0
  -12.2548    3.2956   -0.3514 Cl  0  0  0  0  0  0  0  0  0  0  0  0
  -10.0284    3.1288   -1.9613 C   0  0  0  0  0  0  0  0  0  0  0  0
  -10.7852    1.9161   -2.9107 Cl  0  0  0  0  0  0  0  0  0  0  0  0
   -7.0860    4.1149   -3.9785 C   0  0  0  0  0  0  0  0  0  0  0  0
   -6.1749    3.6961   -4.9925 C   0  0  0  0  0  0  0  0  0  0  0  0
   -6.0675    2.3273   -5.3299 C   0  0  0  0  0  0  0  0  0  0  0  0
   -5.0486    1.8258   -6.2313 C   0  0  0  0  0  0  0  0  0  0  0  0
   -3.3872    2.3214   -6.0443 S   0  0  0  0  0  0  0  0  0  0  0  0
   -2.8248    1.1533   -7.1872 C   0  0  0  0  0  0  0  0  0  0  0  0
   -1.3801    1.0322   -7.5299 C   0  0  0  0  0  0  0  0  0  0  0  0
   -0.4779    1.2053   -6.3121 C   0  0  0  0  0  0  0  0  0  0  0  0
   -3.8742    0.4399   -7.6884 C   0  0  0  0  0  0  0  0  0  0  0  0
   -5.1324    0.8112   -7.1477 C   0  0  0  0  0  0  0  0  0  0  0  0
   -6.6019    0.0983   -7.6667 Cl  0  0  0  0  0  0  0  0  0  0  0  0
   -3.7109   -0.8130   -8.8503 Cl  0  0  0  0  0  0  0  0  0  0  0  0
   -6.8057    1.4446   -4.5569 C   0  0  0  0  0  0  0  0  0  0  0  0
   -6.5549   -0.2738   -4.5574 S   0  0  0  0  0  0  0  0  0  0  0  0
   -5.3748    4.7377   -5.4599 C   0  0  0  0  0  0  0  0  0  0  0  0
   -5.5600    5.9392   -4.7851 C   0  0  0  0  0  0  0  0  0  0  0  0
   -6.9508    5.8329   -3.6948 S   0  0  0  0  0  0  0  0  0  0  0  0
   -4.6248    6.9659   -4.7281 C   0  0  0  0  0  0  0  0  0  0  0  0
   -4.6139    8.1473   -3.9424 C   0  0  0  0  0  0  0  0  0  0  0  0
   -5.6615    8.8671   -3.3655 C   0  0  0  0  0  0  0  0  0  0  0  0
   -5.3663    9.9913   -2.6265 C   0  0  0  0  0  0  0  0  0  0  0  0
   -4.0430   10.4114   -2.4426 C   0  0  0  0  0  0  0  0  0  0  0  0
   -2.9905    9.7121   -2.9930 C   0  0  0  0  0  0  0  0  0  0  0  0
   -3.2596    8.5743   -3.7520 C   0  0  0  0  0  0  0  0  0  0  0  0
   -2.3814    7.6504   -4.3888 C   0  0  0  0  0  0  0  0  0  0  0  0
   -3.2339    6.7463   -5.2080 C   0  0  0  0  0  0  0  0  0  0  0  0
   -2.8680    5.9756   -6.0737 O   0  0  0  0  0  0  0  0  0  0  0  0
   -1.0612    7.3839   -4.0673 C   0  0  0  0  0  0  0  0  0  0  0  0
   -0.3618    6.3068   -4.5891 C   0  0  0  0  0  0  0  0  0  0  0  0
    0.7585    5.7060   -4.0036 C   0  0  0  0  0  0  0  0  0  0  0  0
    1.4087    5.9913   -2.8157 C   0  0  0  0  0  0  0  0  0  0  0  0
    2.3304    5.0077   -2.4203 C   0  0  0  0  0  0  0  0  0  0  0  0
    3.0291    4.9226   -1.1941 C   0  0  0  0  0  0  0  0  0  0  0  0
    3.0416    6.0363   -0.2681 C   0  0  0  0  0  0  0  0  0  0  0  0
    2.7272    5.8297    1.4309 S   0  0  0  0  0  0  0  0  0  0  0  0
    2.9514    7.5131    1.7578 C   0  0  0  0  0  0  0  0  0  0  0  0
    2.7620    8.0687    3.1258 C   0  0  0  0  0  0  0  0  0  0  0  0
    1.3069    8.4878    3.3501 C   0  0  0  0  0  0  0  0  0  0  0  0
    3.2483    8.1852    0.6087 C   0  0  0  0  0  0  0  0  0  0  0  0
    3.5439    9.8744    0.5397 Cl  0  0  0  0  0  0  0  0  0  0  0  0
    3.3047    7.3538   -0.5399 C   0  0  0  0  0  0  0  0  0  0  0  0
    3.7576    7.9527   -2.0839 Cl  0  0  0  0  0  0  0  0  0  0  0  0
    3.6742    3.7225   -0.9220 C   0  0  0  0  0  0  0  0  0  0  0  0
    3.7538    2.6611   -1.8551 C   0  0  0  0  0  0  0  0  0  0  0  0
    3.1131    2.7680   -3.1050 C   0  0  0  0  0  0  0  0  0  0  0  0
    3.1049    1.6613   -4.0470 C   0  0  0  0  0  0  0  0  0  0  0  0
    2.6248    0.0692   -3.5337 S   0  0  0  0  0  0  0  0  0  0  0  0
    2.8032   -0.5867   -5.1256 C   0  0  0  0  0  0  0  0  0  0  0  0
    2.5645   -2.0334   -5.3818 C   0  0  0  0  0  0  0  0  0  0  0  0
    3.6263   -2.8989   -4.7008 C   0  0  0  0  0  0  0  0  0  0  0  0
    3.2091    0.3833   -5.9918 C   0  0  0  0  0  0  0  0  0  0  0  0
    3.3745    1.6604   -5.3869 C   0  0  0  0  0  0  0  0  0  0  0  0
    3.9355    3.0231   -6.2602 Cl  0  0  0  0  0  0  0  0  0  0  0  0
    3.4897    0.1210   -7.6658 Cl  0  0  0  0  0  0  0  0  0  0  0  0
    2.4004    3.9317   -3.3492 C   0  0  0  0  0  0  0  0  0  0  0  0
    1.3623    4.2123   -4.7130 S   0  0  0  0  0  0  0  0  0  0  0  0
    4.4929    1.5642   -1.3442 C   0  0  0  0  0  0  0  0  0  0  0  0
    4.9092    1.7417   -0.0628 C   0  0  0  0  0  0  0  0  0  0  0  0
    4.4679    3.3090    0.5732 S   0  0  0  0  0  0  0  0  0  0  0  0
    5.5712    0.7565    0.7596 C   0  0  0  0  0  0  0  0  0  0  0  0
    6.7530    0.1325    0.5318 C   0  0  0  0  0  0  0  0  0  0  0  0
    7.0628   -0.8592    1.5040 C   0  0  0  0  0  0  0  0  0  0  0  0
    8.2006   -1.6761    1.5765 C   0  0  0  0  0  0  0  0  0  0  0  0
    9.3082   -1.5064    0.6509 C   0  0  0  0  0  0  0  0  0  0  0  0
    9.9315   -2.8305   -0.2876 S   0  0  0  0  0  0  0  0  0  0  0  0
   11.1315   -1.8360   -1.0381 C   0  0  0  0  0  0  0  0  0  0  0  0
   12.1190   -2.4092   -1.9930 C   0  0  0  0  0  0  0  0  0  0  0  0
   13.3108   -3.0109   -1.2443 C   0  0  0  0  0  0  0  0  0  0  0  0
   11.0497   -0.5586   -0.5699 C   0  0  0  0  0  0  0  0  0  0  0  0
   12.0877    0.7132   -1.0708 Cl  0  0  0  0  0  0  0  0  0  0  0  0
   10.0117   -0.3655    0.3812 C   0  0  0  0  0  0  0  0  0  0  0  0
    9.7349    1.1403    1.1574 Cl  0  0  0  0  0  0  0  0  0  0  0  0
    8.2172   -2.6444    2.5735 C   0  0  0  0  0  0  0  0  0  0  0  0
    7.1631   -2.8190    3.5006 C   0  0  0  0  0  0  0  0  0  0  0  0
    6.0381   -1.9809    3.4484 C   0  0  0  0  0  0  0  0  0  0  0  0
    4.9006   -2.1596    4.3350 C   0  0  0  0  0  0  0  0  0  0  0  0
    3.2974   -2.2890    3.6703 S   0  0  0  0  0  0  0  0  0  0  0  0
    2.5758   -2.4665    5.2290 C   0  0  0  0  0  0  0  0  0  0  0  0
    1.1018   -2.6025    5.3997 C   0  0  0  0  0  0  0  0  0  0  0  0
    0.3332   -2.2698    4.1291 C   0  0  0  0  0  0  0  0  0  0  0  0
    3.5351   -2.4377    6.1984 C   0  0  0  0  0  0  0  0  0  0  0  0
    4.8523   -2.2650    5.6968 C   0  0  0  0  0  0  0  0  0  0  0  0
    6.2095   -2.1009    6.7335 Cl  0  0  0  0  0  0  0  0  0  0  0  0
    3.2008   -2.5746    7.8750 Cl  0  0  0  0  0  0  0  0  0  0  0  0
    6.0238   -1.0120    2.4508 C   0  0  0  0  0  0  0  0  0  0  0  0
    4.7529    0.1467    2.1853 S   0  0  0  0  0  0  0  0  0  0  0  0
    7.4158   -3.9157    4.3763 C   0  0  0  0  0  0  0  0  0  0  0  0
    8.5999   -4.5142    4.1402 C   0  0  0  0  0  0  0  0  0  0  0  0
    9.4909   -3.8020    2.8397 S   0  0  0  0  0  0  0  0  0  0  0  0
    5.5104   -6.3505    6.7205 H   0  0  0  0  0  0  0  0  0  0  0  0
    5.3953   -5.9597    4.1426 H   0  0  0  0  0  0  0  0  0  0  0  0
    7.0412   -5.0581   -1.1441 H   0  0  0  0  0  0  0  0  0  0  0  0
    7.3588   -4.0918    0.3058 H   0  0  0  0  0  0  0  0  0  0  0  0
    5.6443   -2.4242   -0.4578 H   0  0  0  0  0  0  0  0  0  0  0  0
    6.9615   -2.6088   -1.6219 H   0  0  0  0  0  0  0  0  0  0  0  0
    5.3983   -3.3763   -1.9260 H   0  0  0  0  0  0  0  0  0  0  0  0
   -3.0087   -9.3973    7.4997 H   0  0  0  0  0  0  0  0  0  0  0  0
   -3.0639   -8.5063    9.0330 H   0  0  0  0  0  0  0  0  0  0  0  0
   -4.4118   -7.6385    6.4266 H   0  0  0  0  0  0  0  0  0  0  0  0
   -5.2326   -8.3374    7.8262 H   0  0  0  0  0  0  0  0  0  0  0  0
   -4.4688   -6.7494    7.9542 H   0  0  0  0  0  0  0  0  0  0  0  0
   -1.7489   -5.7448    4.0756 H   0  0  0  0  0  0  0  0  0  0  0  0
   -3.5059   -4.3344    2.8268 H   0  0  0  0  0  0  0  0  0  0  0  0
   -7.8380   -2.8271    6.3067 H   0  0  0  0  0  0  0  0  0  0  0  0
   -8.0983   -4.4416    5.6218 H   0  0  0  0  0  0  0  0  0  0  0  0
   -5.7369   -5.0463    6.1313 H   0  0  0  0  0  0  0  0  0  0  0  0
   -5.4736   -3.4442    6.8306 H   0  0  0  0  0  0  0  0  0  0  0  0
   -6.6032   -4.5666    7.5951 H   0  0  0  0  0  0  0  0  0  0  0  0
   -2.1598   -4.6238   -7.3354 H   0  0  0  0  0  0  0  0  0  0  0  0
   -2.9580   -3.0561   -7.1145 H   0  0  0  0  0  0  0  0  0  0  0  0
   -0.1339   -3.7476   -6.1804 H   0  0  0  0  0  0  0  0  0  0  0  0
   -0.5480   -2.7367   -7.5683 H   0  0  0  0  0  0  0  0  0  0  0  0
   -0.9418   -2.1915   -5.9342 H   0  0  0  0  0  0  0  0  0  0  0  0
   -5.7583   -2.5626   -3.6721 H   0  0  0  0  0  0  0  0  0  0  0  0
   -8.3781    0.8899   -1.6381 H   0  0  0  0  0  0  0  0  0  0  0  0
  -11.3720    5.6727    0.9654 H   0  0  0  0  0  0  0  0  0  0  0  0
   -9.8270    6.5362    0.8311 H   0  0  0  0  0  0  0  0  0  0  0  0
   -8.7161    4.7474    2.1705 H   0  0  0  0  0  0  0  0  0  0  0  0
  -10.2549    3.8908    2.3056 H   0  0  0  0  0  0  0  0  0  0  0  0
  -10.0563    5.4723    3.0663 H   0  0  0  0  0  0  0  0  0  0  0  0
   -1.1241    1.7943   -8.2724 H   0  0  0  0  0  0  0  0  0  0  0  0
   -1.2176    0.0543   -7.9878 H   0  0  0  0  0  0  0  0  0  0  0  0
   -0.7116    0.4636   -5.5519 H   0  0  0  0  0  0  0  0  0  0  0  0
    0.5632    1.0920   -6.6007 H   0  0  0  0  0  0  0  0  0  0  0  0
   -0.6095    2.1946   -5.8805 H   0  0  0  0  0  0  0  0  0  0  0  0
   -4.6147    4.6337   -6.2106 H   0  0  0  0  0  0  0  0  0  0  0  0
   -6.6831    8.5507   -3.5112 H   0  0  0  0  0  0  0  0  0  0  0  0
   -6.1655   10.5651   -2.1816 H   0  0  0  0  0  0  0  0  0  0  0  0
   -3.8503   11.3000   -1.8599 H   0  0  0  0  0  0  0  0  0  0  0  0
   -1.9732   10.0457   -2.8525 H   0  0  0  0  0  0  0  0  0  0  0  0
   -0.6102    7.9755   -3.2799 H   0  0  0  0  0  0  0  0  0  0  0  0
   -0.7813    5.8033   -5.4479 H   0  0  0  0  0  0  0  0  0  0  0  0
    1.1692    6.8499   -2.2167 H   0  0  0  0  0  0  0  0  0  0  0  0
    3.4130    8.9369    3.2456 H   0  0  0  0  0  0  0  0  0  0  0  0
    3.0422    7.3150    3.8631 H   0  0  0  0  0  0  0  0  0  0  0  0
    1.1854    8.8904    4.3519 H   0  0  0  0  0  0  0  0  0  0  0  0
    1.0194    9.2505    2.6309 H   0  0  0  0  0  0  0  0  0  0  0  0
    0.6457    7.6324    3.2341 H   0  0  0  0  0  0  0  0  0  0  0  0
    2.5778   -2.2024   -6.4592 H   0  0  0  0  0  0  0  0  0  0  0  0
    1.5806   -2.3095   -4.9977 H   0  0  0  0  0  0  0  0  0  0  0  0
    3.6010   -2.7416   -3.6248 H   0  0  0  0  0  0  0  0  0  0  0  0
    4.6175   -2.6446   -5.0681 H   0  0  0  0  0  0  0  0  0  0  0  0
    3.4391   -3.9498   -4.9036 H   0  0  0  0  0  0  0  0  0  0  0  0
    4.6825    0.6599   -1.8926 H   0  0  0  0  0  0  0  0  0  0  0  0
    7.3877    0.3678   -0.3023 H   0  0  0  0  0  0  0  0  0  0  0  0
   12.4664   -1.6161   -2.6575 H   0  0  0  0  0  0  0  0  0  0  0  0
   11.6375   -3.1840   -2.5921 H   0  0  0  0  0  0  0  0  0  0  0  0
   14.0244   -3.4259   -1.9508 H   0  0  0  0  0  0  0  0  0  0  0  0
   13.8091   -2.2464   -0.6537 H   0  0  0  0  0  0  0  0  0  0  0  0
   12.9764   -3.8024   -0.5778 H   0  0  0  0  0  0  0  0  0  0  0  0
    0.7876   -1.9456    6.2157 H   0  0  0  0  0  0  0  0  0  0  0  0
    0.8728   -3.6267    5.7069 H   0  0  0  0  0  0  0  0  0  0  0  0
   -0.7345   -2.3894    4.2935 H   0  0  0  0  0  0  0  0  0  0  0  0
    0.6341   -2.9310    3.3198 H   0  0  0  0  0  0  0  0  0  0  0  0
    0.5271   -1.2451    3.8220 H   0  0  0  0  0  0  0  0  0  0  0  0
    6.7320   -4.2303    5.1410 H   0  0  0  0  0  0  0  0  0  0  0  0
    9.0289   -5.3526    4.6532 H   0  0  0  0  0  0  0  0  0  0  0  0
  1  2  2  0  0  0  0
  2  3  1  0  0  0  0
  3  4  2  0  0  0  0
  4  5  1  0  0  0  0
  5  6  1  0  0  0  0
  6  7  1  0  0  0  0
  7  8  1  0  0  0  0
  8  9  1  0  0  0  0
  7 10  2  0  0  0  0
 10 11  1  0  0  0  0
 10 12  1  0  0  0  0
 12 13  1  0  0  0  0
  4 14  1  0  0  0  0
 14 15  2  0  0  0  0
 15 16  1  0  0  0  0
 16 17  1  0  0  0  0
 17 18  1  0  0  0  0
 18 19  1  0  0  0  0
 19 20  1  0  0  0  0
 20 21  1  0  0  0  0
 19 22  2  0  0  0  0
 22 23  1  0  0  0  0
 23 24  1  0  0  0  0
 22 25  1  0  0  0  0
 16 26  2  0  0  0  0
 26 27  1  0  0  0  0
 15 28  1  0  0  0  0
 28 29  2  0  0  0  0
 29 30  1  0  0  0  0
 29 31  1  0  0  0  0
 31 32  2  0  0  0  0
 32 33  1  0  0  0  0
 33 34  2  0  0  0  0
 34 35  1  0  0  0  0
 35 36  1  0  0  0  0
 36 37  1  0  0  0  0
 37 38  1  0  0  0  0
 38 39  1  0  0  0  0
 37 40  2  0  0  0  0
 40 41  1  0  0  0  0
 40 42  1  0  0  0  0
 42 43  1  0  0  0  0
 34 44  1  0  0  0  0
 44 45  2  0  0  0  0
 45 46  1  0  0  0  0
 46 47  1  0  0  0  0
 47 48  1  0  0  0  0
 48 49  1  0  0  0  0
 49 50  1  0  0  0  0
 50 51  1  0  0  0  0
 49 52  2  0  0  0  0
 52 53  1  0  0  0  0
 53 54  1  0  0  0  0
 52 55  1  0  0  0  0
 46 56  2  0  0  0  0
 56 57  1  0  0  0  0
 45 58  1  0  0  0  0
 58 59  2  0  0  0  0
 59 60  1  0  0  0  0
 59 61  1  0  0  0  0
 61 62  2  0  0  0  0
 62 63  1  0  0  0  0
 63 64  2  0  0  0  0
 64 65  1  0  0  0  0
 65 66  1  0  0  0  0
 66 67  1  0  0  0  0
 67 68  1  0  0  0  0
 68 69  1  0  0  0  0
 67 70  2  0  0  0  0
 70 71  1  0  0  0  0
 70 72  1  0  0  0  0
 72 73  1  0  0  0  0
 64 74  1  0  0  0  0
 74 75  2  0  0  0  0
 75 76  1  0  0  0  0
 76 77  1  0  0  0  0
 77 78  1  0  0  0  0
 78 79  1  0  0  0  0
 79 80  1  0  0  0  0
 80 81  1  0  0  0  0
 79 82  2  0  0  0  0
 82 83  1  0  0  0  0
 83 84  1  0  0  0  0
 82 85  1  0  0  0  0
 76 86  2  0  0  0  0
 86 87  1  0  0  0  0
 75 88  1  0  0  0  0
 88 89  2  0  0  0  0
 89 90  1  0  0  0  0
 89 91  1  0  0  0  0
 91 92  2  0  0  0  0
 92 93  1  0  0  0  0
 93 94  2  0  0  0  0
 94 95  1  0  0  0  0
 95 96  2  0  0  0  0
 96 97  1  0  0  0  0
 97 98  2  0  0  0  0
 98 99  1  0  0  0  0
 99100  2  0  0  0  0
 98101  1  0  0  0  0
101102  2  0  0  0  0
102103  1  0  0  0  0
103104  2  0  0  0  0
104105  1  0  0  0  0
105106  2  0  0  0  0
106107  1  0  0  0  0
107108  1  0  0  0  0
108109  1  0  0  0  0
109110  1  0  0  0  0
110111  1  0  0  0  0
109112  2  0  0  0  0
112113  1  0  0  0  0
112114  1  0  0  0  0
114115  1  0  0  0  0
106116  1  0  0  0  0
116117  2  0  0  0  0
117118  1  0  0  0  0
118119  1  0  0  0  0
119120  1  0  0  0  0
120121  1  0  0  0  0
121122  1  0  0  0  0
122123  1  0  0  0  0
121124  2  0  0  0  0
124125  1  0  0  0  0
125126  1  0  0  0  0
124127  1  0  0  0  0
118128  2  0  0  0  0
128129  1  0  0  0  0
117130  1  0  0  0  0
130131  2  0  0  0  0
131132  1  0  0  0  0
131133  1  0  0  0  0
133134  2  0  0  0  0
134135  1  0  0  0  0
135136  2  0  0  0  0
136137  1  0  0  0  0
137138  1  0  0  0  0
138139  1  0  0  0  0
139140  1  0  0  0  0
140141  1  0  0  0  0
139142  2  0  0  0  0
142143  1  0  0  0  0
142144  1  0  0  0  0
144145  1  0  0  0  0
136146  1  0  0  0  0
146147  2  0  0  0  0
147148  1  0  0  0  0
148149  1  0  0  0  0
149150  1  0  0  0  0
150151  1  0  0  0  0
151152  1  0  0  0  0
152153  1  0  0  0  0
151154  2  0  0  0  0
154155  1  0  0  0  0
155156  1  0  0  0  0
154157  1  0  0  0  0
148158  2  0  0  0  0
158159  1  0  0  0  0
147160  1  0  0  0  0
160161  2  0  0  0  0
161162  1  0  0  0  0
 27  1  1  0  0  0  0
 57 31  1  0  0  0  0
 87 61  1  0  0  0  0
 99 91  1  0  0  0  0
129103  1  0  0  0  0
159133  1  0  0  0  0
 26  3  1  0  0  0  0
 56 33  1  0  0  0  0
 86 63  1  0  0  0  0
 97 92  1  0  0  0  0
128105  1  0  0  0  0
158135  1  0  0  0  0
 12  5  2  0  0  0  0
 30 14  1  0  0  0  0
 42 35  2  0  0  0  0
 60 44  1  0  0  0  0
 72 65  2  0  0  0  0
 90 74  1  0  0  0  0
114107  2  0  0  0  0
132116  1  0  0  0  0
144137  2  0  0  0  0
162146  1  0  0  0  0
 23 17  2  0  0  0  0
 53 47  2  0  0  0  0
 83 77  2  0  0  0  0
125119  2  0  0  0  0
155149  2  0  0  0  0
  1163  1  0  0  0  0
  2164  1  0  0  0  0
  8165  1  0  0  0  0
  8166  1  0  0  0  0
  9167  1  0  0  0  0
  9168  1  0  0  0  0
  9169  1  0  0  0  0
 20170  1  0  0  0  0
 20171  1  0  0  0  0
 21172  1  0  0  0  0
 21173  1  0  0  0  0
 21174  1  0  0  0  0
 28175  1  0  0  0  0
 32176  1  0  0  0  0
 38177  1  0  0  0  0
 38178  1  0  0  0  0
 39179  1  0  0  0  0
 39180  1  0  0  0  0
 39181  1  0  0  0  0
 50182  1  0  0  0  0
 50183  1  0  0  0  0
 51184  1  0  0  0  0
 51185  1  0  0  0  0
 51186  1  0  0  0  0
 58187  1  0  0  0  0
 62188  1  0  0  0  0
 68189  1  0  0  0  0
 68190  1  0  0  0  0
 69191  1  0  0  0  0
 69192  1  0  0  0  0
 69193  1  0  0  0  0
 80194  1  0  0  0  0
 80195  1  0  0  0  0
 81196  1  0  0  0  0
 81197  1  0  0  0  0
 81198  1  0  0  0  0
 88199  1  0  0  0  0
 93200  1  0  0  0  0
 94201  1  0  0  0  0
 95202  1  0  0  0  0
 96203  1  0  0  0  0
101204  1  0  0  0  0
102205  1  0  0  0  0
104206  1  0  0  0  0
110207  1  0  0  0  0
110208  1  0  0  0  0
111209  1  0  0  0  0
111210  1  0  0  0  0
111211  1  0  0  0  0
122212  1  0  0  0  0
122213  1  0  0  0  0
123214  1  0  0  0  0
123215  1  0  0  0  0
123216  1  0  0  0  0
130217  1  0  0  0  0
134218  1  0  0  0  0
140219  1  0  0  0  0
140220  1  0  0  0  0
141221  1  0  0  0  0
141222  1  0  0  0  0
141223  1  0  0  0  0
152224  1  0  0  0  0
152225  1  0  0  0  0
153226  1  0  0  0  0
153227  1  0  0  0  0
153228  1  0  0  0  0
160229  1  0  0  0  0
161230  1  0  0  0  0
M  END
