230

C          4.62610       -6.25370        6.12100
C          4.54320       -6.04510        4.79120
C          3.19910       -5.96070        4.32740
C          2.75020       -5.80590        3.00720
C          3.66210       -5.71140        1.87850
S          4.96950       -4.56520        1.84780
C          5.46870       -5.04680        0.26440
C          6.59780       -4.36650       -0.42600
C          6.11790       -3.11050       -1.15600
C          4.65870       -6.03800       -0.20280
Cl         4.83960       -6.77010       -1.74310
C          3.63930       -6.42310        0.70930
Cl         2.56600       -7.71790        0.38160
C          1.37400       -5.74380        2.82000
C          0.44090       -5.89440        3.87410
C          0.89080       -6.14090        5.18530
C         -0.05750       -6.46960        6.23680
S         -1.24980       -7.70650        5.93290
C         -1.90210       -7.59040        7.52970
C         -3.07700       -8.40410        7.94660
C         -4.38390       -7.73770        7.50930
C         -1.23400       -6.64020        8.24150
C         -0.18410       -6.00940        7.51920
Cl         0.74150       -4.74410        8.21200
Cl        -1.60490       -6.22730        9.86570
C          2.26950       -6.12900        5.38420
S          3.08950       -6.37640        6.89850
C         -0.89190       -5.69530        3.43040
C         -0.98230       -5.41400        2.09970
S          0.58000       -5.40340        1.31380
C         -2.13810       -5.05660        1.33660
C         -3.30280       -4.50570        1.78590
C         -4.16800       -4.09220        0.74210
C         -5.32940       -3.30230        0.85650
C         -5.87760       -2.99030        2.16780
S         -6.33370       -4.27480        3.24940
C         -6.85150       -3.16680        4.47580
C         -7.35690       -3.65730        5.78750
C         -6.21690       -4.21490        6.64230
C         -6.66540       -1.88340        4.05900
Cl        -7.04910       -0.50190        5.00220
C         -6.11640       -1.77830        2.75090
Cl        -5.71660       -0.26800        2.04640
C         -5.87080       -2.80670       -0.32090
C         -5.35450       -3.15250       -1.59690
C         -4.22590       -3.98190       -1.71870
C         -3.65450       -4.29740       -3.01740
S         -3.30330       -3.05610       -4.18910
C         -2.71750       -4.19950       -5.34870
C         -2.23480       -3.75180       -6.68380
C         -0.87410       -3.06110       -6.58400
C         -2.77180       -5.46070       -4.83490
C         -3.29880       -5.52020       -3.51560
Cl        -3.53810       -7.00150       -2.68890
Cl        -2.27690       -6.86620       -5.68590
C         -3.63380       -4.39780       -0.53410
S         -2.08820       -5.17940       -0.40630
C         -6.00750       -2.45760       -2.63300
C         -6.91450       -1.53160       -2.19580
S         -7.15780       -1.63370       -0.46270
C         -7.30150       -0.40350       -2.97290
C         -7.88270        0.77430       -2.58570
C         -7.62260        1.84730       -3.47100
C         -7.85130        3.22750       -3.24060
C         -8.78220        3.64280       -2.21180
S         -8.42330        4.91290       -1.07900
C         -9.94650        4.73730       -0.27860
C        -10.28800        5.55130        0.92000
C         -9.79610        4.87050        2.19980
C        -10.68180        3.75030       -0.86570
Cl       -12.25480        3.29560       -0.35140
C        -10.02840        3.12880       -1.96130
Cl       -10.78520        1.91610       -2.91070
C         -7.08600        4.11490       -3.97850
C         -6.17490        3.69610       -4.99250
C         -6.06750        2.32730       -5.32990
C         -5.04860        1.82580       -6.23130
S         -3.38720        2.32140       -6.04430
C         -2.82480        1.15330       -7.18720
C         -1.38010        1.03220       -7.52990
C         -0.47790        1.20530       -6.31210
C         -3.87420        0.43990       -7.68840
C         -5.13240        0.81120       -7.14770
Cl        -6.60190        0.09830       -7.66670
Cl        -3.71090       -0.81300       -8.85030
C         -6.80570        1.44460       -4.55690
S         -6.55490       -0.27380       -4.55740
C         -5.37480        4.73770       -5.45990
C         -5.56000        5.93920       -4.78510
S         -6.95080        5.83290       -3.69480
C         -4.62480        6.96590       -4.72810
C         -4.61390        8.14730       -3.94240
C         -5.66150        8.86710       -3.36550
C         -5.36630        9.99130       -2.62650
C         -4.04300       10.41140       -2.44260
C         -2.99050        9.71210       -2.99300
C         -3.25960        8.57430       -3.75200
C         -2.38140        7.65040       -4.38880
C         -3.23390        6.74630       -5.20800
O         -2.86800        5.97560       -6.07370
C         -1.06120        7.38390       -4.06730
C         -0.36180        6.30680       -4.58910
C          0.75850        5.70600       -4.00360
C          1.40870        5.99130       -2.81570
C          2.33040        5.00770       -2.42030
C          3.02910        4.92260       -1.19410
C          3.04160        6.03630       -0.26810
S          2.72720        5.82970        1.43090
C          2.95140        7.51310        1.75780
C          2.76200        8.06870        3.12580
C          1.30690        8.48780        3.35010
C          3.24830        8.18520        0.60870
Cl         3.54390        9.87440        0.53970
C          3.30470        7.35380       -0.53990
Cl         3.75760        7.95270       -2.08390
C          3.67420        3.72250       -0.92200
C          3.75380        2.66110       -1.85510
C          3.11310        2.76800       -3.10500
C          3.10490        1.66130       -4.04700
S          2.62480        0.06920       -3.53370
C          2.80320       -0.58670       -5.12560
C          2.56450       -2.03340       -5.38180
C          3.62630       -2.89890       -4.70080
C          3.20910        0.38330       -5.99180
C          3.37450        1.66040       -5.38690
Cl         3.93550        3.02310       -6.26020
Cl         3.48970        0.12100       -7.66580
C          2.40040        3.93170       -3.34920
S          1.36230        4.21230       -4.71300
C          4.49290        1.56420       -1.34420
C          4.90920        1.74170       -0.06280
S          4.46790        3.30900        0.57320
C          5.57120        0.75650        0.75960
C          6.75300        0.13250        0.53180
C          7.06280       -0.85920        1.50400
C          8.20060       -1.67610        1.57650
C          9.30820       -1.50640        0.65090
S          9.93150       -2.83050       -0.28760
C         11.13150       -1.83600       -1.03810
C         12.11900       -2.40920       -1.99300
C         13.31080       -3.01090       -1.24430
C         11.04970       -0.55860       -0.56990
Cl        12.08770        0.71320       -1.07080
C         10.01170       -0.36550        0.38120
Cl         9.73490        1.14030        1.15740
C          8.21720       -2.64440        2.57350
C          7.16310       -2.81900        3.50060
C          6.03810       -1.98090        3.44840
C          4.90060       -2.15960        4.33500
S          3.29740       -2.28900        3.67030
C          2.57580       -2.46650        5.22900
C          1.10180       -2.60250        5.39970
C          0.33320       -2.26980        4.12910
C          3.53510       -2.43770        6.19840
C          4.85230       -2.26500        5.69680
Cl         6.20950       -2.10090        6.73350
Cl         3.20080       -2.57460        7.87500
C          6.02380       -1.01200        2.45080
S          4.75290        0.14670        2.18530
C          7.41580       -3.91570        4.37630
C          8.59990       -4.51420        4.14020
S          9.49090       -3.80200        2.83970
H          5.51040       -6.35050        6.72050
H          5.39530       -5.95970        4.14260
H          7.04120       -5.05810       -1.14410
H          7.35880       -4.09180        0.30580
H          5.64430       -2.42420       -0.45780
H          6.96150       -2.60880       -1.62190
H          5.39830       -3.37630       -1.92600
H         -3.00870       -9.39730        7.49970
H         -3.06390       -8.50630        9.03300
H         -4.41180       -7.63850        6.42660
H         -5.23260       -8.33740        7.82620
H         -4.46880       -6.74940        7.95420
H         -1.74890       -5.74480        4.07560
H         -3.50590       -4.33440        2.82680
H         -7.83800       -2.82710        6.30670
H         -8.09830       -4.44160        5.62180
H         -5.73690       -5.04630        6.13130
H         -5.47360       -3.44420        6.83060
H         -6.60320       -4.56660        7.59510
H         -2.15980       -4.62380       -7.33540
H         -2.95800       -3.05610       -7.11450
H         -0.13390       -3.74760       -6.18040
H         -0.54800       -2.73670       -7.56830
H         -0.94180       -2.19150       -5.93420
H         -5.75830       -2.56260       -3.67210
H         -8.37810        0.88990       -1.63810
H        -11.37200        5.67270        0.96540
H         -9.82700        6.53620        0.83110
H         -8.71610        4.74740        2.17050
H        -10.25490        3.89080        2.30560
H        -10.05630        5.47230        3.06630
H         -1.12410        1.79430       -8.27240
H         -1.21760        0.05430       -7.98780
H         -0.71160        0.46360       -5.55190
H          0.56320        1.09200       -6.60070
H         -0.60950        2.19460       -5.88050
H         -4.61470        4.63370       -6.21060
H         -6.68310        8.55070       -3.51120
H         -6.16550       10.56510       -2.18160
H         -3.85030       11.30000       -1.85990
H         -1.97320       10.04570       -2.85250
H         -0.61020        7.97550       -3.27990
H         -0.78130        5.80330       -5.44790
H          1.16920        6.84990       -2.21670
H          3.41300        8.93690        3.24560
H          3.04220        7.31500        3.86310
H          1.18540        8.89040        4.35190
H          1.01940        9.25050        2.63090
H          0.64570        7.63240        3.23410
H          2.57780       -2.20240       -6.45920
H          1.58060       -2.30950       -4.99770
H          3.60100       -2.74160       -3.62480
H          4.61750       -2.64460       -5.06810
H          3.43910       -3.94980       -4.90360
H          4.68250        0.65990       -1.89260
H          7.38770        0.36780       -0.30230
H         12.46640       -1.61610       -2.65750
H         11.63750       -3.18400       -2.59210
H         14.02440       -3.42590       -1.95080
H         13.80910       -2.24640       -0.65370
H         12.97640       -3.80240       -0.57780
H          0.78760       -1.94560        6.21570
H          0.87280       -3.62670        5.70690
H         -0.73450       -2.38940        4.29350
H          0.63410       -2.93100        3.31980
H          0.52710       -1.24510        3.82200
H          6.73200       -4.23030        5.14100
H          9.02890       -5.35260        4.65320
