
  xtb     02282221193D
 energy: -310.425158865270 gnorm: 0.000185875090 xtb: 6.4.1 (unknown)
155172  0     0  0            999 V2000
   10.1925   -4.3648    9.5902 C   0  0  0  0  0  0  0  0  0  0  0  0
   10.4313   -4.0979    8.2900 C   0  0  0  0  0  0  0  0  0  0  0  0
    9.2630   -4.2039    7.4807 C   0  0  0  0  0  0  0  0  0  0  0  0
    9.1483   -4.0347    6.0921 C   0  0  0  0  0  0  0  0  0  0  0  0
   10.2647   -3.5640    5.2897 C   0  0  0  0  0  0  0  0  0  0  0  0
   10.7775   -4.4033    3.8571 S   0  0  0  0  0  0  0  0  0  0  0  0
   12.0217   -3.2458    3.5313 C   0  0  0  0  0  0  0  0  0  0  0  0
   12.8712   -3.3536    2.3137 C   0  0  0  0  0  0  0  0  0  0  0  0
   12.1437   -2.7830    1.0938 C   0  0  0  0  0  0  0  0  0  0  0  0
   12.0198   -2.2666    4.4796 C   0  0  0  0  0  0  0  0  0  0  0  0
   13.1030   -0.9354    4.4853 Cl  0  0  0  0  0  0  0  0  0  0  0  0
   11.0289   -2.4462    5.4818 C   0  0  0  0  0  0  0  0  0  0  0  0
   10.7794   -1.3138    6.7474 Cl  0  0  0  0  0  0  0  0  0  0  0  0
    7.9132   -4.3173    5.5227 C   0  0  0  0  0  0  0  0  0  0  0  0
    6.7840   -4.7032    6.2848 C   0  0  0  0  0  0  0  0  0  0  0  0
    6.8811   -4.8084    7.6831 C   0  0  0  0  0  0  0  0  0  0  0  0
    5.7256   -5.1410    8.4997 C   0  0  0  0  0  0  0  0  0  0  0  0
    4.7585   -6.5527    8.1845 S   0  0  0  0  0  0  0  0  0  0  0  0
    3.6878   -6.2134    9.5008 C   0  0  0  0  0  0  0  0  0  0  0  0
    2.5630   -7.1271    9.8423 C   0  0  0  0  0  0  0  0  0  0  0  0
    3.0087   -8.1920   10.8472 C   0  0  0  0  0  0  0  0  0  0  0  0
    4.0760   -5.0762   10.1437 C   0  0  0  0  0  0  0  0  0  0  0  0
    5.2267   -4.4635    9.5781 C   0  0  0  0  0  0  0  0  0  0  0  0
    5.8465   -2.9736   10.1534 Cl  0  0  0  0  0  0  0  0  0  0  0  0
    3.2555   -4.4191   11.4993 Cl  0  0  0  0  0  0  0  0  0  0  0  0
    8.1304   -4.5735    8.2459 C   0  0  0  0  0  0  0  0  0  0  0  0
    8.5433   -4.7580    9.9263 S   0  0  0  0  0  0  0  0  0  0  0  0
    5.6374   -4.8827    5.4733 C   0  0  0  0  0  0  0  0  0  0  0  0
    5.8661   -4.6521    4.1481 C   0  0  0  0  0  0  0  0  0  0  0  0
    7.5235   -4.1900    3.8315 S   0  0  0  0  0  0  0  0  0  0  0  0
    4.9080   -4.7192    3.0907 C   0  0  0  0  0  0  0  0  0  0  0  0
    3.6254   -5.1786    3.1745 C   0  0  0  0  0  0  0  0  0  0  0  0
    2.8951   -5.0373    1.9705 C   0  0  0  0  0  0  0  0  0  0  0  0
    1.5363   -5.3207    1.7489 C   0  0  0  0  0  0  0  0  0  0  0  0
    0.7192   -5.9248    2.7895 C   0  0  0  0  0  0  0  0  0  0  0  0
    1.1800   -7.4329    3.5243 S   0  0  0  0  0  0  0  0  0  0  0  0
   -0.2083   -7.4450    4.5569 C   0  0  0  0  0  0  0  0  0  0  0  0
   -0.4754   -8.5803    5.4824 C   0  0  0  0  0  0  0  0  0  0  0  0
   -1.2779   -9.6784    4.7803 C   0  0  0  0  0  0  0  0  0  0  0  0
   -0.9764   -6.3424    4.3294 C   0  0  0  0  0  0  0  0  0  0  0  0
   -2.4336   -6.0043    5.1684 Cl  0  0  0  0  0  0  0  0  0  0  0  0
   -0.4527   -5.4757    3.3317 C   0  0  0  0  0  0  0  0  0  0  0  0
   -1.1908   -3.9820    2.9344 Cl  0  0  0  0  0  0  0  0  0  0  0  0
    1.0129   -4.9770    0.5089 C   0  0  0  0  0  0  0  0  0  0  0  0
    1.7955   -4.3778   -0.5126 C   0  0  0  0  0  0  0  0  0  0  0  0
    3.1566   -4.1016   -0.2928 C   0  0  0  0  0  0  0  0  0  0  0  0
    3.9703   -3.4426   -1.3016 C   0  0  0  0  0  0  0  0  0  0  0  0
    5.4755   -4.1288   -1.8349 S   0  0  0  0  0  0  0  0  0  0  0  0
    5.7743   -2.8204   -2.9265 C   0  0  0  0  0  0  0  0  0  0  0  0
    6.9724   -2.8105   -3.8102 C   0  0  0  0  0  0  0  0  0  0  0  0
    6.7159   -3.6099   -5.0900 C   0  0  0  0  0  0  0  0  0  0  0  0
    4.7573   -1.9143   -2.8711 C   0  0  0  0  0  0  0  0  0  0  0  0
    3.7352   -2.2600   -1.9468 C   0  0  0  0  0  0  0  0  0  0  0  0
    2.3945   -1.2348   -1.6288 Cl  0  0  0  0  0  0  0  0  0  0  0  0
    4.7004   -0.4796   -3.8107 Cl  0  0  0  0  0  0  0  0  0  0  0  0
    3.6758   -4.4466    0.9464 C   0  0  0  0  0  0  0  0  0  0  0  0
    5.2939   -4.1160    1.4942 S   0  0  0  0  0  0  0  0  0  0  0  0
    1.0260   -4.0997   -1.6660 C   0  0  0  0  0  0  0  0  0  0  0  0
   -0.2895   -4.4364   -1.5270 C   0  0  0  0  0  0  0  0  0  0  0  0
   -0.6391   -5.1952    0.0051 S   0  0  0  0  0  0  0  0  0  0  0  0
   -1.3634   -4.0647   -2.3819 C   0  0  0  0  0  0  0  0  0  0  0  0
   -1.1294   -2.9640   -3.7374 S   0  0  0  0  0  0  0  0  0  0  0  0
   -2.8944   -2.9179   -3.8156 C   0  0  0  0  0  0  0  0  0  0  0  0
   -3.4509   -3.6995   -2.9404 N   0  0  0  0  0  0  0  0  0  0  0  0
   -2.6145   -4.3251   -2.1574 N   0  0  0  0  0  0  0  0  0  0  0  0
   -3.5572   -1.9473   -4.6193 C   0  0  0  0  0  0  0  0  0  0  0  0
   -4.8508   -1.6194   -4.4152 C   0  0  0  0  0  0  0  0  0  0  0  0
   -5.4736   -0.4461   -4.9331 C   0  0  0  0  0  0  0  0  0  0  0  0
   -4.9797    0.4933   -5.7973 C   0  0  0  0  0  0  0  0  0  0  0  0
   -5.7621    1.6685   -5.8659 C   0  0  0  0  0  0  0  0  0  0  0  0
   -5.4562    2.8672   -6.5396 C   0  0  0  0  0  0  0  0  0  0  0  0
   -4.3722    2.9194   -7.5015 C   0  0  0  0  0  0  0  0  0  0  0  0
   -3.1634    4.1684   -7.4706 S   0  0  0  0  0  0  0  0  0  0  0  0
   -2.3432    3.5159   -8.8465 C   0  0  0  0  0  0  0  0  0  0  0  0
   -1.0871    4.1287   -9.3588 C   0  0  0  0  0  0  0  0  0  0  0  0
    0.1325    3.5836   -8.6113 C   0  0  0  0  0  0  0  0  0  0  0  0
   -2.9781    2.3938   -9.2920 C   0  0  0  0  0  0  0  0  0  0  0  0
   -2.4591    1.4730  -10.6440 Cl  0  0  0  0  0  0  0  0  0  0  0  0
   -4.1290    2.0527   -8.5345 C   0  0  0  0  0  0  0  0  0  0  0  0
   -5.1447    0.7318   -8.9468 Cl  0  0  0  0  0  0  0  0  0  0  0  0
   -6.2150    3.9829   -6.2072 C   0  0  0  0  0  0  0  0  0  0  0  0
   -7.3159    3.9246   -5.3131 C   0  0  0  0  0  0  0  0  0  0  0  0
   -7.7050    2.6965   -4.7463 C   0  0  0  0  0  0  0  0  0  0  0  0
   -8.8549    2.5755   -3.8674 C   0  0  0  0  0  0  0  0  0  0  0  0
   -9.0676    3.6019   -2.4791 S   0  0  0  0  0  0  0  0  0  0  0  0
  -10.5203    2.7922   -2.0012 C   0  0  0  0  0  0  0  0  0  0  0  0
  -11.2967    3.2425   -0.8140 C   0  0  0  0  0  0  0  0  0  0  0  0
  -12.1567    4.4627   -1.1517 C   0  0  0  0  0  0  0  0  0  0  0  0
  -10.8181    1.7966   -2.8831 C   0  0  0  0  0  0  0  0  0  0  0  0
   -9.8724    1.6630   -3.9351 C   0  0  0  0  0  0  0  0  0  0  0  0
  -10.0588    0.5207   -5.1977 Cl  0  0  0  0  0  0  0  0  0  0  0  0
  -12.1936    0.7800   -2.7519 Cl  0  0  0  0  0  0  0  0  0  0  0  0
   -6.8945    1.6005   -5.0142 C   0  0  0  0  0  0  0  0  0  0  0  0
   -6.9993    0.0542   -4.2301 S   0  0  0  0  0  0  0  0  0  0  0  0
   -7.8766    5.2034   -5.0905 C   0  0  0  0  0  0  0  0  0  0  0  0
   -7.2301    6.1981   -5.7661 C   0  0  0  0  0  0  0  0  0  0  0  0
   -5.9330    5.6064   -6.7733 S   0  0  0  0  0  0  0  0  0  0  0  0
   -7.4361    7.5987   -5.6383 C   0  0  0  0  0  0  0  0  0  0  0  0
   -8.5141    8.2770   -4.4231 S   0  0  0  0  0  0  0  0  0  0  0  0
   -7.9206    9.8443   -4.9820 C   0  0  0  0  0  0  0  0  0  0  0  0
   -7.0650    9.7335   -5.9523 N   0  0  0  0  0  0  0  0  0  0  0  0
   -6.7966    8.5079   -6.3095 N   0  0  0  0  0  0  0  0  0  0  0  0
   -8.2864   11.0853   -4.3879 C   0  0  0  0  0  0  0  0  0  0  0  0
   -9.1156   11.1994   -3.3342 C   0  0  0  0  0  0  0  0  0  0  0  0
   -9.4208   12.4270   -2.6798 C   0  0  0  0  0  0  0  0  0  0  0  0
   -8.7231   13.9824   -3.1262 S   0  0  0  0  0  0  0  0  0  0  0  0
   -9.6552   14.6313   -1.7821 C   0  0  0  0  0  0  0  0  0  0  0  0
  -10.3491   13.7206   -1.1722 N   0  0  0  0  0  0  0  0  0  0  0  0
  -10.2210   12.5157   -1.6598 N   0  0  0  0  0  0  0  0  0  0  0  0
   -9.6449   16.0129   -1.3926 C   0  0  0  0  0  0  0  0  0  0  0  0
   -8.9207   16.9550   -1.9882 C   0  0  0  0  0  0  0  0  0  0  0  0
   10.8923   -4.3583   10.4028 H   0  0  0  0  0  0  0  0  0  0  0  0
   11.4015   -3.8517    7.9004 H   0  0  0  0  0  0  0  0  0  0  0  0
   13.1155   -4.4017    2.1326 H   0  0  0  0  0  0  0  0  0  0  0  0
   13.7972   -2.8009    2.4816 H   0  0  0  0  0  0  0  0  0  0  0  0
   11.9085   -1.7336    1.2526 H   0  0  0  0  0  0  0  0  0  0  0  0
   12.7709   -2.8700    0.2108 H   0  0  0  0  0  0  0  0  0  0  0  0
   11.2166   -3.3245    0.9212 H   0  0  0  0  0  0  0  0  0  0  0  0
    2.2009   -7.6106    8.9334 H   0  0  0  0  0  0  0  0  0  0  0  0
    1.7518   -6.5373   10.2736 H   0  0  0  0  0  0  0  0  0  0  0  0
    2.1765   -8.8469   11.0906 H   0  0  0  0  0  0  0  0  0  0  0  0
    3.3612   -7.7216   11.7613 H   0  0  0  0  0  0  0  0  0  0  0  0
    3.8153   -8.7906   10.4306 H   0  0  0  0  0  0  0  0  0  0  0  0
    4.6752   -5.1556    5.8630 H   0  0  0  0  0  0  0  0  0  0  0  0
    3.2066   -5.5910    4.0729 H   0  0  0  0  0  0  0  0  0  0  0  0
   -1.0401   -8.2080    6.3393 H   0  0  0  0  0  0  0  0  0  0  0  0
    0.4722   -8.9908    5.8352 H   0  0  0  0  0  0  0  0  0  0  0  0
   -1.4702  -10.4977    5.4676 H   0  0  0  0  0  0  0  0  0  0  0  0
   -0.7259  -10.0612    3.9253 H   0  0  0  0  0  0  0  0  0  0  0  0
   -2.2291   -9.2847    4.4319 H   0  0  0  0  0  0  0  0  0  0  0  0
    7.8194   -3.2429   -3.2752 H   0  0  0  0  0  0  0  0  0  0  0  0
    7.2095   -1.7763   -4.0666 H   0  0  0  0  0  0  0  0  0  0  0  0
    5.8820   -3.1823   -5.6408 H   0  0  0  0  0  0  0  0  0  0  0  0
    6.4803   -4.6434   -4.8481 H   0  0  0  0  0  0  0  0  0  0  0  0
    7.5980   -3.5916   -5.7242 H   0  0  0  0  0  0  0  0  0  0  0  0
    1.4202   -3.6465   -2.5572 H   0  0  0  0  0  0  0  0  0  0  0  0
   -2.9358   -1.3882   -5.3025 H   0  0  0  0  0  0  0  0  0  0  0  0
   -5.4243   -2.2087   -3.7134 H   0  0  0  0  0  0  0  0  0  0  0  0
   -4.0534    0.3765   -6.3279 H   0  0  0  0  0  0  0  0  0  0  0  0
   -0.9946    3.9016  -10.4225 H   0  0  0  0  0  0  0  0  0  0  0  0
   -1.1363    5.2114   -9.2335 H   0  0  0  0  0  0  0  0  0  0  0  0
    1.0402    4.0395   -8.9969 H   0  0  0  0  0  0  0  0  0  0  0  0
    0.0539    3.8048   -7.5496 H   0  0  0  0  0  0  0  0  0  0  0  0
    0.2026    2.5063   -8.7387 H   0  0  0  0  0  0  0  0  0  0  0  0
  -11.9363    2.4217   -0.4851 H   0  0  0  0  0  0  0  0  0  0  0  0
  -10.6094    3.4969   -0.0050 H   0  0  0  0  0  0  0  0  0  0  0  0
  -12.7210    4.7743   -0.2772 H   0  0  0  0  0  0  0  0  0  0  0  0
  -12.8548    4.2229   -1.9497 H   0  0  0  0  0  0  0  0  0  0  0  0
  -11.5285    5.2896   -1.4745 H   0  0  0  0  0  0  0  0  0  0  0  0
   -8.7078    5.3892   -4.4347 H   0  0  0  0  0  0  0  0  0  0  0  0
   -7.8134   11.9542   -4.8256 H   0  0  0  0  0  0  0  0  0  0  0  0
   -9.5915   10.3286   -2.9028 H   0  0  0  0  0  0  0  0  0  0  0  0
  -10.2843   16.2344   -0.5498 H   0  0  0  0  0  0  0  0  0  0  0  0
   -8.2810   16.7323   -2.8271 H   0  0  0  0  0  0  0  0  0  0  0  0
   -8.9446   17.9772   -1.6547 H   0  0  0  0  0  0  0  0  0  0  0  0
  1  2  2  0  0  0  0
  2  3  1  0  0  0  0
  3  4  2  0  0  0  0
  4  5  1  0  0  0  0
  5  6  1  0  0  0  0
  6  7  1  0  0  0  0
  7  8  1  0  0  0  0
  8  9  1  0  0  0  0
  7 10  2  0  0  0  0
 10 11  1  0  0  0  0
 10 12  1  0  0  0  0
 12 13  1  0  0  0  0
  4 14  1  0  0  0  0
 14 15  2  0  0  0  0
 15 16  1  0  0  0  0
 16 17  1  0  0  0  0
 17 18  1  0  0  0  0
 18 19  1  0  0  0  0
 19 20  1  0  0  0  0
 20 21  1  0  0  0  0
 19 22  2  0  0  0  0
 22 23  1  0  0  0  0
 23 24  1  0  0  0  0
 22 25  1  0  0  0  0
 16 26  2  0  0  0  0
 26 27  1  0  0  0  0
 15 28  1  0  0  0  0
 28 29  2  0  0  0  0
 29 30  1  0  0  0  0
 29 31  1  0  0  0  0
 31 32  2  0  0  0  0
 32 33  1  0  0  0  0
 33 34  2  0  0  0  0
 34 35  1  0  0  0  0
 35 36  1  0  0  0  0
 36 37  1  0  0  0  0
 37 38  1  0  0  0  0
 38 39  1  0  0  0  0
 37 40  2  0  0  0  0
 40 41  1  0  0  0  0
 40 42  1  0  0  0  0
 42 43  1  0  0  0  0
 34 44  1  0  0  0  0
 44 45  2  0  0  0  0
 45 46  1  0  0  0  0
 46 47  1  0  0  0  0
 47 48  1  0  0  0  0
 48 49  1  0  0  0  0
 49 50  1  0  0  0  0
 50 51  1  0  0  0  0
 49 52  2  0  0  0  0
 52 53  1  0  0  0  0
 53 54  1  0  0  0  0
 52 55  1  0  0  0  0
 46 56  2  0  0  0  0
 56 57  1  0  0  0  0
 45 58  1  0  0  0  0
 58 59  2  0  0  0  0
 59 60  1  0  0  0  0
 59 61  1  0  0  0  0
 61 62  1  0  0  0  0
 62 63  1  0  0  0  0
 63 64  2  0  0  0  0
 64 65  1  0  0  0  0
 63 66  1  0  0  0  0
 66 67  2  0  0  0  0
 67 68  1  0  0  0  0
 68 69  2  0  0  0  0
 69 70  1  0  0  0  0
 70 71  2  0  0  0  0
 71 72  1  0  0  0  0
 72 73  1  0  0  0  0
 73 74  1  0  0  0  0
 74 75  1  0  0  0  0
 75 76  1  0  0  0  0
 74 77  2  0  0  0  0
 77 78  1  0  0  0  0
 77 79  1  0  0  0  0
 79 80  1  0  0  0  0
 71 81  1  0  0  0  0
 81 82  2  0  0  0  0
 82 83  1  0  0  0  0
 83 84  1  0  0  0  0
 84 85  1  0  0  0  0
 85 86  1  0  0  0  0
 86 87  1  0  0  0  0
 87 88  1  0  0  0  0
 86 89  2  0  0  0  0
 89 90  1  0  0  0  0
 90 91  1  0  0  0  0
 89 92  1  0  0  0  0
 83 93  2  0  0  0  0
 93 94  1  0  0  0  0
 82 95  1  0  0  0  0
 95 96  2  0  0  0  0
 96 97  1  0  0  0  0
 96 98  1  0  0  0  0
 98 99  1  0  0  0  0
 99100  1  0  0  0  0
100101  2  0  0  0  0
101102  1  0  0  0  0
100103  1  0  0  0  0
103104  2  0  0  0  0
104105  1  0  0  0  0
105106  1  0  0  0  0
106107  1  0  0  0  0
107108  2  0  0  0  0
108109  1  0  0  0  0
107110  1  0  0  0  0
110111  2  0  0  0  0
 27  1  1  0  0  0  0
 57 31  1  0  0  0  0
 65 61  2  0  0  0  0
 94 68  1  0  0  0  0
102 98  2  0  0  0  0
109105  2  0  0  0  0
 26  3  1  0  0  0  0
 56 33  1  0  0  0  0
 93 70  1  0  0  0  0
 12  5  2  0  0  0  0
 30 14  1  0  0  0  0
 42 35  2  0  0  0  0
 60 44  1  0  0  0  0
 79 72  2  0  0  0  0
 97 81  1  0  0  0  0
 23 17  2  0  0  0  0
 53 47  2  0  0  0  0
 90 84  2  0  0  0  0
  1112  1  0  0  0  0
  2113  1  0  0  0  0
  8114  1  0  0  0  0
  8115  1  0  0  0  0
  9116  1  0  0  0  0
  9117  1  0  0  0  0
  9118  1  0  0  0  0
 20119  1  0  0  0  0
 20120  1  0  0  0  0
 21121  1  0  0  0  0
 21122  1  0  0  0  0
 21123  1  0  0  0  0
 28124  1  0  0  0  0
 32125  1  0  0  0  0
 38126  1  0  0  0  0
 38127  1  0  0  0  0
 39128  1  0  0  0  0
 39129  1  0  0  0  0
 39130  1  0  0  0  0
 50131  1  0  0  0  0
 50132  1  0  0  0  0
 51133  1  0  0  0  0
 51134  1  0  0  0  0
 51135  1  0  0  0  0
 58136  1  0  0  0  0
 66137  1  0  0  0  0
 67138  1  0  0  0  0
 69139  1  0  0  0  0
 75140  1  0  0  0  0
 75141  1  0  0  0  0
 76142  1  0  0  0  0
 76143  1  0  0  0  0
 76144  1  0  0  0  0
 87145  1  0  0  0  0
 87146  1  0  0  0  0
 88147  1  0  0  0  0
 88148  1  0  0  0  0
 88149  1  0  0  0  0
 95150  1  0  0  0  0
103151  1  0  0  0  0
104152  1  0  0  0  0
110153  1  0  0  0  0
111154  1  0  0  0  0
111155  1  0  0  0  0
M  END
