
  xtb     03072221303D
 energy: -387.659830246058 gnorm: 0.000648051106 xtb: 6.4.1 (unknown)
220241  0     0  0            999 V2000
    7.2399   -1.7735   10.3697 C   0  0  0  0  0  0  0  0  0  0  0  0
    8.3740   -3.0822   10.3615 S   0  0  0  0  0  0  0  0  0  0  0  0
    7.2782   -3.8441    9.1913 C   0  0  0  0  0  0  0  0  0  0  0  0
    6.2484   -3.0955    8.9512 N   0  0  0  0  0  0  0  0  0  0  0  0
    6.2269   -1.9517    9.6021 N   0  0  0  0  0  0  0  0  0  0  0  0
    7.6139   -5.1299    8.6701 C   0  0  0  0  0  0  0  0  0  0  0  0
    7.0198   -5.8896    7.7205 C   0  0  0  0  0  0  0  0  0  0  0  0
    5.8697   -5.6574    6.9111 C   0  0  0  0  0  0  0  0  0  0  0  0
    4.9789   -4.6234    6.8779 C   0  0  0  0  0  0  0  0  0  0  0  0
    3.9693   -4.7695    5.9003 C   0  0  0  0  0  0  0  0  0  0  0  0
    2.9350   -3.8634    5.6096 C   0  0  0  0  0  0  0  0  0  0  0  0
    2.8671   -2.5343    6.2260 C   0  0  0  0  0  0  0  0  0  0  0  0
    1.6787   -2.0409    6.7568 C   0  0  0  0  0  0  0  0  0  0  0  0
    1.5976   -0.7549    7.2559 C   0  0  0  0  0  0  0  0  0  0  0  0
    2.6992    0.0927    7.2227 C   0  0  0  0  0  0  0  0  0  0  0  0
    2.7266    1.7607    7.7802 S   0  0  0  0  0  0  0  0  0  0  0  0
    0.9667    2.1937    8.0101 C   0  0  0  0  0  0  0  0  0  0  0  0
    0.2238    2.3293    6.6949 C   0  0  0  0  0  0  0  0  0  0  0  0
    3.8924   -0.4242    6.7106 C   0  0  0  0  0  0  0  0  0  0  0  0
    4.9795    0.3689    6.6610 F   0  0  0  0  0  0  0  0  0  0  0  0
    3.9906   -1.7071    6.2240 C   0  0  0  0  0  0  0  0  0  0  0  0
    2.0202   -4.2602    4.6478 C   0  0  0  0  0  0  0  0  0  0  0  0
    2.1434   -5.4671    3.9155 C   0  0  0  0  0  0  0  0  0  0  0  0
    3.2195   -6.3392    4.1556 C   0  0  0  0  0  0  0  0  0  0  0  0
    3.4152   -7.5162    3.3010 C   0  0  0  0  0  0  0  0  0  0  0  0
    3.6051   -8.7950    3.8185 C   0  0  0  0  0  0  0  0  0  0  0  0
    3.7221   -9.8793    2.9750 C   0  0  0  0  0  0  0  0  0  0  0  0
    3.6797   -9.7373    1.5875 C   0  0  0  0  0  0  0  0  0  0  0  0
    3.8439  -11.2077    0.6239 S   0  0  0  0  0  0  0  0  0  0  0  0
    2.8230  -10.9138   -0.8692 C   0  0  0  0  0  0  0  0  0  0  0  0
    1.3819  -10.5911   -0.5328 C   0  0  0  0  0  0  0  0  0  0  0  0
    3.5551   -8.4446    1.0865 C   0  0  0  0  0  0  0  0  0  0  0  0
    3.4061   -7.3551    1.9182 C   0  0  0  0  0  0  0  0  0  0  0  0
    3.5720   -8.2010   -0.2444 F   0  0  0  0  0  0  0  0  0  0  0  0
    4.0864   -5.9874    5.1790 C   0  0  0  0  0  0  0  0  0  0  0  0
    5.4746   -6.8906    5.7098 S   0  0  0  0  0  0  0  0  0  0  0  0
    1.1035   -5.6158    2.9639 C   0  0  0  0  0  0  0  0  0  0  0  0
    0.2386   -4.5623    2.9333 C   0  0  0  0  0  0  0  0  0  0  0  0
    0.6479   -3.3301    4.1074 S   0  0  0  0  0  0  0  0  0  0  0  0
   -0.8365   -4.3358    2.0220 C   0  0  0  0  0  0  0  0  0  0  0  0
   -1.0974   -4.9942    0.8562 C   0  0  0  0  0  0  0  0  0  0  0  0
   -2.1096   -4.3808    0.0759 C   0  0  0  0  0  0  0  0  0  0  0  0
   -2.5570   -4.7579   -1.2016 C   0  0  0  0  0  0  0  0  0  0  0  0
   -2.0238   -5.9427   -1.8854 C   0  0  0  0  0  0  0  0  0  0  0  0
   -0.6519   -6.1546   -2.0169 C   0  0  0  0  0  0  0  0  0  0  0  0
   -0.1717   -7.2828   -2.6471 C   0  0  0  0  0  0  0  0  0  0  0  0
   -1.0361   -8.2443   -3.1655 C   0  0  0  0  0  0  0  0  0  0  0  0
   -0.3164   -9.6833   -3.9042 S   0  0  0  0  0  0  0  0  0  0  0  0
   -1.3267   -9.9538   -5.4059 C   0  0  0  0  0  0  0  0  0  0  0  0
   -1.3269   -8.7411   -6.3140 C   0  0  0  0  0  0  0  0  0  0  0  0
   -2.4025   -8.0233   -3.0226 C   0  0  0  0  0  0  0  0  0  0  0  0
   -3.2981   -8.9291   -3.4697 F   0  0  0  0  0  0  0  0  0  0  0  0
   -2.8967   -6.8887   -2.4119 C   0  0  0  0  0  0  0  0  0  0  0  0
   -3.4937   -3.9281   -1.8001 C   0  0  0  0  0  0  0  0  0  0  0  0
   -4.0415   -2.7893   -1.1554 C   0  0  0  0  0  0  0  0  0  0  0  0
   -3.6729   -2.4686    0.1664 C   0  0  0  0  0  0  0  0  0  0  0  0
   -4.3447   -1.4147    0.9292 C   0  0  0  0  0  0  0  0  0  0  0  0
   -5.7346   -1.2784    0.8669 C   0  0  0  0  0  0  0  0  0  0  0  0
   -6.3921   -0.3776    1.6732 C   0  0  0  0  0  0  0  0  0  0  0  0
   -5.7065    0.4320    2.5829 C   0  0  0  0  0  0  0  0  0  0  0  0
   -6.6986    1.5109    3.5634 S   0  0  0  0  0  0  0  0  0  0  0  0
   -5.7792    1.7819    5.1258 C   0  0  0  0  0  0  0  0  0  0  0  0
   -5.0571    3.1144    5.1583 C   0  0  0  0  0  0  0  0  0  0  0  0
   -4.3206    0.3201    2.5999 C   0  0  0  0  0  0  0  0  0  0  0  0
   -3.6489   -0.5818    1.7999 C   0  0  0  0  0  0  0  0  0  0  0  0
   -3.5644    1.0977    3.4077 F   0  0  0  0  0  0  0  0  0  0  0  0
   -2.6634   -3.2447    0.7214 C   0  0  0  0  0  0  0  0  0  0  0  0
   -1.9008   -2.9726    2.2652 S   0  0  0  0  0  0  0  0  0  0  0  0
   -4.8150   -2.0091   -2.0478 C   0  0  0  0  0  0  0  0  0  0  0  0
   -4.8560   -2.5147   -3.3169 C   0  0  0  0  0  0  0  0  0  0  0  0
   -4.0182   -4.0413   -3.4636 S   0  0  0  0  0  0  0  0  0  0  0  0
   -5.2618   -1.8053   -4.4820 C   0  0  0  0  0  0  0  0  0  0  0  0
   -5.9475   -0.1871   -4.3563 S   0  0  0  0  0  0  0  0  0  0  0  0
   -5.5783   -0.0609   -6.0952 C   0  0  0  0  0  0  0  0  0  0  0  0
   -5.1207   -1.1704   -6.5803 N   0  0  0  0  0  0  0  0  0  0  0  0
   -4.9518   -2.1262   -5.7006 N   0  0  0  0  0  0  0  0  0  0  0  0
   -5.4511    1.2624   -6.6033 C   0  0  0  0  0  0  0  0  0  0  0  0
   -4.5014    1.6187   -7.5018 C   0  0  0  0  0  0  0  0  0  0  0  0
   -3.8248    2.8727   -7.3956 C   0  0  0  0  0  0  0  0  0  0  0  0
   -4.0938    3.8863   -6.5157 C   0  0  0  0  0  0  0  0  0  0  0  0
   -2.9408    4.5654   -6.0609 C   0  0  0  0  0  0  0  0  0  0  0  0
   -2.8820    5.3500   -4.8943 C   0  0  0  0  0  0  0  0  0  0  0  0
   -4.1252    5.7693   -4.2316 C   0  0  0  0  0  0  0  0  0  0  0  0
   -4.4106    5.3994   -2.9178 C   0  0  0  0  0  0  0  0  0  0  0  0
   -5.6141    5.7372   -2.3389 C   0  0  0  0  0  0  0  0  0  0  0  0
   -6.5812    6.4594   -3.0373 C   0  0  0  0  0  0  0  0  0  0  0  0
   -8.0716    6.8360   -2.1638 S   0  0  0  0  0  0  0  0  0  0  0  0
   -9.3902    6.7602   -3.4323 C   0  0  0  0  0  0  0  0  0  0  0  0
   -9.4705    5.3979   -4.0916 C   0  0  0  0  0  0  0  0  0  0  0  0
   -6.2691    6.8517   -4.3358 C   0  0  0  0  0  0  0  0  0  0  0  0
   -7.1315    7.5922   -5.0675 F   0  0  0  0  0  0  0  0  0  0  0  0
   -5.0762    6.5000   -4.9358 C   0  0  0  0  0  0  0  0  0  0  0  0
   -1.6290    5.4941   -4.3283 C   0  0  0  0  0  0  0  0  0  0  0  0
   -0.4413    5.0149   -4.9359 C   0  0  0  0  0  0  0  0  0  0  0  0
   -0.4879    4.3856   -6.1957 C   0  0  0  0  0  0  0  0  0  0  0  0
    0.7636    3.9758   -6.8426 C   0  0  0  0  0  0  0  0  0  0  0  0
    0.9712    2.6977   -7.3575 C   0  0  0  0  0  0  0  0  0  0  0  0
    2.1819    2.3578   -7.9222 C   0  0  0  0  0  0  0  0  0  0  0  0
    3.2286    3.2736   -8.0136 C   0  0  0  0  0  0  0  0  0  0  0  0
    4.7171    2.7254   -8.7931 S   0  0  0  0  0  0  0  0  0  0  0  0
    6.0541    3.5078   -7.8155 C   0  0  0  0  0  0  0  0  0  0  0  0
    5.9823    3.1330   -6.3489 C   0  0  0  0  0  0  0  0  0  0  0  0
    2.9965    4.5565   -7.5252 C   0  0  0  0  0  0  0  0  0  0  0  0
    1.8005    4.9022   -6.9318 C   0  0  0  0  0  0  0  0  0  0  0  0
    3.9434    5.5165   -7.6151 F   0  0  0  0  0  0  0  0  0  0  0  0
   -1.7554    4.0977   -6.6860 C   0  0  0  0  0  0  0  0  0  0  0  0
   -2.1443    2.9304   -7.9290 S   0  0  0  0  0  0  0  0  0  0  0  0
    0.6369    4.9532   -4.0085 C   0  0  0  0  0  0  0  0  0  0  0  0
    0.2799    5.3160   -2.7439 C   0  0  0  0  0  0  0  0  0  0  0  0
   -1.3310    6.0197   -2.6919 S   0  0  0  0  0  0  0  0  0  0  0  0
    0.8060    4.8220   -1.5051 C   0  0  0  0  0  0  0  0  0  0  0  0
   -0.0214    4.3815   -0.5165 C   0  0  0  0  0  0  0  0  0  0  0  0
    0.6128    3.5432    0.4291 C   0  0  0  0  0  0  0  0  0  0  0  0
   -0.0400    2.7430    1.3749 C   0  0  0  0  0  0  0  0  0  0  0  0
   -1.5176    2.7803    1.3478 C   0  0  0  0  0  0  0  0  0  0  0  0
   -2.2576    3.7169    2.0613 C   0  0  0  0  0  0  0  0  0  0  0  0
   -3.6056    3.8675    1.8177 C   0  0  0  0  0  0  0  0  0  0  0  0
   -4.2755    3.0938    0.8651 C   0  0  0  0  0  0  0  0  0  0  0  0
   -5.9792    3.4859    0.6471 S   0  0  0  0  0  0  0  0  0  0  0  0
   -6.5875    2.4724   -0.7528 C   0  0  0  0  0  0  0  0  0  0  0  0
   -8.0196    2.8846   -1.0351 C   0  0  0  0  0  0  0  0  0  0  0  0
   -3.5292    2.1264    0.2020 C   0  0  0  0  0  0  0  0  0  0  0  0
   -4.0887    1.2989   -0.7171 F   0  0  0  0  0  0  0  0  0  0  0  0
   -2.1742    1.9768    0.4256 C   0  0  0  0  0  0  0  0  0  0  0  0
    0.7538    1.8993    2.1248 C   0  0  0  0  0  0  0  0  0  0  0  0
    2.1638    1.8365    1.9640 C   0  0  0  0  0  0  0  0  0  0  0  0
    2.8043    2.5896    0.9649 C   0  0  0  0  0  0  0  0  0  0  0  0
    4.2351    2.4480    0.6701 C   0  0  0  0  0  0  0  0  0  0  0  0
    4.8182    1.1934    0.4968 C   0  0  0  0  0  0  0  0  0  0  0  0
    6.1464    1.0798    0.1480 C   0  0  0  0  0  0  0  0  0  0  0  0
    6.9513    2.2044   -0.0275 C   0  0  0  0  0  0  0  0  0  0  0  0
    8.6457    1.9242   -0.4473 S   0  0  0  0  0  0  0  0  0  0  0  0
    9.0476    3.2634   -1.6295 C   0  0  0  0  0  0  0  0  0  0  0  0
    8.1335    3.2520   -2.8382 C   0  0  0  0  0  0  0  0  0  0  0  0
    6.3649    3.4484    0.1853 C   0  0  0  0  0  0  0  0  0  0  0  0
    5.0293    3.5780    0.5073 C   0  0  0  0  0  0  0  0  0  0  0  0
    7.0896    4.5837    0.0821 F   0  0  0  0  0  0  0  0  0  0  0  0
    2.0014    3.4293    0.2031 C   0  0  0  0  0  0  0  0  0  0  0  0
    2.4660    4.3221   -1.2353 S   0  0  0  0  0  0  0  0  0  0  0  0
    2.7417    0.9070    2.8810 C   0  0  0  0  0  0  0  0  0  0  0  0
    1.8261    0.2772    3.6447 C   0  0  0  0  0  0  0  0  0  0  0  0
    0.1959    0.7679    3.3285 S   0  0  0  0  0  0  0  0  0  0  0  0
    7.3829   -0.8985   10.9700 H   0  0  0  0  0  0  0  0  0  0  0  0
    8.5067   -5.5418    9.1224 H   0  0  0  0  0  0  0  0  0  0  0  0
    7.5023   -6.8384    7.5156 H   0  0  0  0  0  0  0  0  0  0  0  0
    5.0411   -3.7911    7.5539 H   0  0  0  0  0  0  0  0  0  0  0  0
    0.8065   -2.6753    6.7979 H   0  0  0  0  0  0  0  0  0  0  0  0
    0.6614   -0.4183    7.6696 H   0  0  0  0  0  0  0  0  0  0  0  0
    1.0115    3.1512    8.5295 H   0  0  0  0  0  0  0  0  0  0  0  0
    0.5101    1.4617    8.6749 H   0  0  0  0  0  0  0  0  0  0  0  0
   -0.7962    2.6616    6.8774 H   0  0  0  0  0  0  0  0  0  0  0  0
    0.7181    3.0595    6.0582 H   0  0  0  0  0  0  0  0  0  0  0  0
    0.1863    1.3822    6.1624 H   0  0  0  0  0  0  0  0  0  0  0  0
    4.9301   -2.0435    5.8157 H   0  0  0  0  0  0  0  0  0  0  0  0
    3.6258   -8.9431    4.8870 H   0  0  0  0  0  0  0  0  0  0  0  0
    3.8418  -10.8725    3.3789 H   0  0  0  0  0  0  0  0  0  0  0  0
    2.8955  -11.8609   -1.4035 H   0  0  0  0  0  0  0  0  0  0  0  0
    3.2864  -10.1344   -1.4694 H   0  0  0  0  0  0  0  0  0  0  0  0
    0.9468  -11.3760    0.0821 H   0  0  0  0  0  0  0  0  0  0  0  0
    1.3065   -9.6483    0.0057 H   0  0  0  0  0  0  0  0  0  0  0  0
    0.8079  -10.5046   -1.4532 H   0  0  0  0  0  0  0  0  0  0  0  0
    3.3163   -6.3747    1.4755 H   0  0  0  0  0  0  0  0  0  0  0  0
    0.9936   -6.4824    2.3384 H   0  0  0  0  0  0  0  0  0  0  0  0
   -0.5650   -5.8741    0.5471 H   0  0  0  0  0  0  0  0  0  0  0  0
    0.0413   -5.4117   -1.6533 H   0  0  0  0  0  0  0  0  0  0  0  0
    0.8907   -7.4407   -2.7501 H   0  0  0  0  0  0  0  0  0  0  0  0
   -2.3323  -10.2420   -5.1076 H   0  0  0  0  0  0  0  0  0  0  0  0
   -0.8396  -10.8045   -5.8827 H   0  0  0  0  0  0  0  0  0  0  0  0
   -1.8676   -8.9715   -7.2297 H   0  0  0  0  0  0  0  0  0  0  0  0
   -1.8128   -7.8938   -5.8333 H   0  0  0  0  0  0  0  0  0  0  0  0
   -0.3089   -8.4556   -6.5715 H   0  0  0  0  0  0  0  0  0  0  0  0
   -3.9652   -6.7702   -2.3233 H   0  0  0  0  0  0  0  0  0  0  0  0
   -6.3047   -1.9180    0.2107 H   0  0  0  0  0  0  0  0  0  0  0  0
   -7.4677   -0.2947    1.6337 H   0  0  0  0  0  0  0  0  0  0  0  0
   -5.1022    0.9429    5.2662 H   0  0  0  0  0  0  0  0  0  0  0  0
   -6.5554    1.7444    5.8911 H   0  0  0  0  0  0  0  0  0  0  0  0
   -4.6267    3.2702    6.1457 H   0  0  0  0  0  0  0  0  0  0  0  0
   -5.7521    3.9243    4.9482 H   0  0  0  0  0  0  0  0  0  0  0  0
   -4.2571    3.1383    4.4239 H   0  0  0  0  0  0  0  0  0  0  0  0
   -2.5721   -0.5861    1.8535 H   0  0  0  0  0  0  0  0  0  0  0  0
   -5.2359   -1.0543   -1.7862 H   0  0  0  0  0  0  0  0  0  0  0  0
   -5.9234    2.0194   -5.9935 H   0  0  0  0  0  0  0  0  0  0  0  0
   -4.0406    0.8570   -8.1143 H   0  0  0  0  0  0  0  0  0  0  0  0
   -5.0650    4.0585   -6.0886 H   0  0  0  0  0  0  0  0  0  0  0  0
   -3.7009    4.8109   -2.3578 H   0  0  0  0  0  0  0  0  0  0  0  0
   -5.8324    5.4426   -1.3240 H   0  0  0  0  0  0  0  0  0  0  0  0
   -9.2342    7.5563   -4.1564 H   0  0  0  0  0  0  0  0  0  0  0  0
  -10.2940    6.9727   -2.8613 H   0  0  0  0  0  0  0  0  0  0  0  0
   -9.6247    4.6203   -3.3463 H   0  0  0  0  0  0  0  0  0  0  0  0
  -10.3019    5.3802   -4.7932 H   0  0  0  0  0  0  0  0  0  0  0  0
   -8.5563    5.1770   -4.6393 H   0  0  0  0  0  0  0  0  0  0  0  0
   -4.8890    6.8212   -5.9491 H   0  0  0  0  0  0  0  0  0  0  0  0
    0.1963    1.9522   -7.2820 H   0  0  0  0  0  0  0  0  0  0  0  0
    2.3429    1.3613   -8.3028 H   0  0  0  0  0  0  0  0  0  0  0  0
    6.0208    4.5847   -7.9642 H   0  0  0  0  0  0  0  0  0  0  0  0
    6.9593    3.1137   -8.2774 H   0  0  0  0  0  0  0  0  0  0  0  0
    5.9847    2.0515   -6.2298 H   0  0  0  0  0  0  0  0  0  0  0  0
    6.8411    3.5450   -5.8232 H   0  0  0  0  0  0  0  0  0  0  0  0
    5.0786    3.5286   -5.8891 H   0  0  0  0  0  0  0  0  0  0  0  0
    1.6750    5.9102   -6.5667 H   0  0  0  0  0  0  0  0  0  0  0  0
    1.5863    4.5025   -4.2382 H   0  0  0  0  0  0  0  0  0  0  0  0
   -1.0785    4.5755   -0.5051 H   0  0  0  0  0  0  0  0  0  0  0  0
   -1.7676    4.3450    2.7891 H   0  0  0  0  0  0  0  0  0  0  0  0
   -4.1759    4.6151    2.3473 H   0  0  0  0  0  0  0  0  0  0  0  0
   -5.9478    2.6610   -1.6140 H   0  0  0  0  0  0  0  0  0  0  0  0
   -6.5286    1.4240   -0.4626 H   0  0  0  0  0  0  0  0  0  0  0  0
   -8.4082    2.3050   -1.8699 H   0  0  0  0  0  0  0  0  0  0  0  0
   -8.0697    3.9425   -1.2832 H   0  0  0  0  0  0  0  0  0  0  0  0
   -8.6442    2.7064   -0.1626 H   0  0  0  0  0  0  0  0  0  0  0  0
   -1.6360    1.2361   -0.1465 H   0  0  0  0  0  0  0  0  0  0  0  0
    4.2140    0.3048    0.5981 H   0  0  0  0  0  0  0  0  0  0  0  0
    6.5899    0.1080   -0.0041 H   0  0  0  0  0  0  0  0  0  0  0  0
    9.0228    4.2177   -1.1083 H   0  0  0  0  0  0  0  0  0  0  0  0
   10.0763    3.0409   -1.9134 H   0  0  0  0  0  0  0  0  0  0  0  0
    8.4599    4.0111   -3.5466 H   0  0  0  0  0  0  0  0  0  0  0  0
    7.1058    3.4689   -2.5523 H   0  0  0  0  0  0  0  0  0  0  0  0
    8.1583    2.2802   -3.3273 H   0  0  0  0  0  0  0  0  0  0  0  0
    4.6281    4.5682    0.6576 H   0  0  0  0  0  0  0  0  0  0  0  0
    3.8000    0.7391    2.9657 H   0  0  0  0  0  0  0  0  0  0  0  0
    1.9961   -0.4699    4.3951 H   0  0  0  0  0  0  0  0  0  0  0  0
  1  2  1  0  0  0  0
  2  3  1  0  0  0  0
  3  4  2  0  0  0  0
  4  5  1  0  0  0  0
  3  6  1  0  0  0  0
  6  7  2  0  0  0  0
  7  8  1  0  0  0  0
  8  9  2  0  0  0  0
  9 10  1  0  0  0  0
 10 11  2  0  0  0  0
 11 12  1  0  0  0  0
 12 13  2  0  0  0  0
 13 14  1  0  0  0  0
 14 15  2  0  0  0  0
 15 16  1  0  0  0  0
 16 17  1  0  0  0  0
 17 18  1  0  0  0  0
 15 19  1  0  0  0  0
 19 20  1  0  0  0  0
 19 21  2  0  0  0  0
 11 22  1  0  0  0  0
 22 23  2  0  0  0  0
 23 24  1  0  0  0  0
 24 25  1  0  0  0  0
 25 26  2  0  0  0  0
 26 27  1  0  0  0  0
 27 28  2  0  0  0  0
 28 29  1  0  0  0  0
 29 30  1  0  0  0  0
 30 31  1  0  0  0  0
 28 32  1  0  0  0  0
 32 33  2  0  0  0  0
 32 34  1  0  0  0  0
 24 35  2  0  0  0  0
 35 36  1  0  0  0  0
 23 37  1  0  0  0  0
 37 38  2  0  0  0  0
 38 39  1  0  0  0  0
 38 40  1  0  0  0  0
 40 41  2  0  0  0  0
 41 42  1  0  0  0  0
 42 43  2  0  0  0  0
 43 44  1  0  0  0  0
 44 45  2  0  0  0  0
 45 46  1  0  0  0  0
 46 47  2  0  0  0  0
 47 48  1  0  0  0  0
 48 49  1  0  0  0  0
 49 50  1  0  0  0  0
 47 51  1  0  0  0  0
 51 52  1  0  0  0  0
 51 53  2  0  0  0  0
 43 54  1  0  0  0  0
 54 55  2  0  0  0  0
 55 56  1  0  0  0  0
 56 57  1  0  0  0  0
 57 58  2  0  0  0  0
 58 59  1  0  0  0  0
 59 60  2  0  0  0  0
 60 61  1  0  0  0  0
 61 62  1  0  0  0  0
 62 63  1  0  0  0  0
 60 64  1  0  0  0  0
 64 65  2  0  0  0  0
 64 66  1  0  0  0  0
 56 67  2  0  0  0  0
 67 68  1  0  0  0  0
 55 69  1  0  0  0  0
 69 70  2  0  0  0  0
 70 71  1  0  0  0  0
 70 72  1  0  0  0  0
 72 73  1  0  0  0  0
 73 74  1  0  0  0  0
 74 75  2  0  0  0  0
 75 76  1  0  0  0  0
 74 77  1  0  0  0  0
 77 78  2  0  0  0  0
 78 79  1  0  0  0  0
 79 80  2  0  0  0  0
 80 81  1  0  0  0  0
 81 82  2  0  0  0  0
 82 83  1  0  0  0  0
 83 84  2  0  0  0  0
 84 85  1  0  0  0  0
 85 86  2  0  0  0  0
 86 87  1  0  0  0  0
 87 88  1  0  0  0  0
 88 89  1  0  0  0  0
 86 90  1  0  0  0  0
 90 91  1  0  0  0  0
 90 92  2  0  0  0  0
 82 93  1  0  0  0  0
 93 94  2  0  0  0  0
 94 95  1  0  0  0  0
 95 96  1  0  0  0  0
 96 97  2  0  0  0  0
 97 98  1  0  0  0  0
 98 99  2  0  0  0  0
 99100  1  0  0  0  0
100101  1  0  0  0  0
101102  1  0  0  0  0
 99103  1  0  0  0  0
103104  2  0  0  0  0
103105  1  0  0  0  0
 95106  2  0  0  0  0
106107  1  0  0  0  0
 94108  1  0  0  0  0
108109  2  0  0  0  0
109110  1  0  0  0  0
109111  1  0  0  0  0
111112  2  0  0  0  0
112113  1  0  0  0  0
113114  2  0  0  0  0
114115  1  0  0  0  0
115116  2  0  0  0  0
116117  1  0  0  0  0
117118  2  0  0  0  0
118119  1  0  0  0  0
119120  1  0  0  0  0
120121  1  0  0  0  0
118122  1  0  0  0  0
122123  1  0  0  0  0
122124  2  0  0  0  0
114125  1  0  0  0  0
125126  2  0  0  0  0
126127  1  0  0  0  0
127128  1  0  0  0  0
128129  2  0  0  0  0
129130  1  0  0  0  0
130131  2  0  0  0  0
131132  1  0  0  0  0
132133  1  0  0  0  0
133134  1  0  0  0  0
131135  1  0  0  0  0
135136  2  0  0  0  0
135137  1  0  0  0  0
127138  2  0  0  0  0
138139  1  0  0  0  0
126140  1  0  0  0  0
140141  2  0  0  0  0
141142  1  0  0  0  0
  5  1  2  0  0  0  0
 36  8  1  0  0  0  0
 68 40  1  0  0  0  0
 76 72  2  0  0  0  0
107 79  1  0  0  0  0
139111  1  0  0  0  0
 35 10  1  0  0  0  0
 67 42  1  0  0  0  0
106 81  1  0  0  0  0
138113  1  0  0  0  0
 21 12  1  0  0  0  0
 39 22  1  0  0  0  0
 53 44  1  0  0  0  0
 71 54  1  0  0  0  0
 92 83  1  0  0  0  0
110 93  1  0  0  0  0
124115  1  0  0  0  0
142125  1  0  0  0  0
 33 25  1  0  0  0  0
 65 57  1  0  0  0  0
104 96  1  0  0  0  0
136128  1  0  0  0  0
  1143  1  0  0  0  0
  6144  1  0  0  0  0
  7145  1  0  0  0  0
  9146  1  0  0  0  0
 13147  1  0  0  0  0
 14148  1  0  0  0  0
 17149  1  0  0  0  0
 17150  1  0  0  0  0
 18151  1  0  0  0  0
 18152  1  0  0  0  0
 18153  1  0  0  0  0
 21154  1  0  0  0  0
 26155  1  0  0  0  0
 27156  1  0  0  0  0
 30157  1  0  0  0  0
 30158  1  0  0  0  0
 31159  1  0  0  0  0
 31160  1  0  0  0  0
 31161  1  0  0  0  0
 33162  1  0  0  0  0
 37163  1  0  0  0  0
 41164  1  0  0  0  0
 45165  1  0  0  0  0
 46166  1  0  0  0  0
 49167  1  0  0  0  0
 49168  1  0  0  0  0
 50169  1  0  0  0  0
 50170  1  0  0  0  0
 50171  1  0  0  0  0
 53172  1  0  0  0  0
 58173  1  0  0  0  0
 59174  1  0  0  0  0
 62175  1  0  0  0  0
 62176  1  0  0  0  0
 63177  1  0  0  0  0
 63178  1  0  0  0  0
 63179  1  0  0  0  0
 65180  1  0  0  0  0
 69181  1  0  0  0  0
 77182  1  0  0  0  0
 78183  1  0  0  0  0
 80184  1  0  0  0  0
 84185  1  0  0  0  0
 85186  1  0  0  0  0
 88187  1  0  0  0  0
 88188  1  0  0  0  0
 89189  1  0  0  0  0
 89190  1  0  0  0  0
 89191  1  0  0  0  0
 92192  1  0  0  0  0
 97193  1  0  0  0  0
 98194  1  0  0  0  0
101195  1  0  0  0  0
101196  1  0  0  0  0
102197  1  0  0  0  0
102198  1  0  0  0  0
102199  1  0  0  0  0
104200  1  0  0  0  0
108201  1  0  0  0  0
112202  1  0  0  0  0
116203  1  0  0  0  0
117204  1  0  0  0  0
120205  1  0  0  0  0
120206  1  0  0  0  0
121207  1  0  0  0  0
121208  1  0  0  0  0
121209  1  0  0  0  0
124210  1  0  0  0  0
129211  1  0  0  0  0
130212  1  0  0  0  0
133213  1  0  0  0  0
133214  1  0  0  0  0
134215  1  0  0  0  0
134216  1  0  0  0  0
134217  1  0  0  0  0
136218  1  0  0  0  0
140219  1  0  0  0  0
141220  1  0  0  0  0
M  END
