220

C          7.23990       -1.77350       10.36970
S          8.37400       -3.08220       10.36150
C          7.27820       -3.84410        9.19130
N          6.24840       -3.09550        8.95120
N          6.22690       -1.95170        9.60210
C          7.61390       -5.12990        8.67010
C          7.01980       -5.88960        7.72050
C          5.86970       -5.65740        6.91110
C          4.97890       -4.62340        6.87790
C          3.96930       -4.76950        5.90030
C          2.93500       -3.86340        5.60960
C          2.86710       -2.53430        6.22600
C          1.67870       -2.04090        6.75680
C          1.59760       -0.75490        7.25590
C          2.69920        0.09270        7.22270
S          2.72660        1.76070        7.78020
C          0.96670        2.19370        8.01010
C          0.22380        2.32930        6.69490
C          3.89240       -0.42420        6.71060
F          4.97950        0.36890        6.66100
C          3.99060       -1.70710        6.22400
C          2.02020       -4.26020        4.64780
C          2.14340       -5.46710        3.91550
C          3.21950       -6.33920        4.15560
C          3.41520       -7.51620        3.30100
C          3.60510       -8.79500        3.81850
C          3.72210       -9.87930        2.97500
C          3.67970       -9.73730        1.58750
S          3.84390      -11.20770        0.62390
C          2.82300      -10.91380       -0.86920
C          1.38190      -10.59110       -0.53280
C          3.55510       -8.44460        1.08650
C          3.40610       -7.35510        1.91820
F          3.57200       -8.20100       -0.24440
C          4.08640       -5.98740        5.17900
S          5.47460       -6.89060        5.70980
C          1.10350       -5.61580        2.96390
C          0.23860       -4.56230        2.93330
S          0.64790       -3.33010        4.10740
C         -0.83650       -4.33580        2.02200
C         -1.09740       -4.99420        0.85620
C         -2.10960       -4.38080        0.07590
C         -2.55700       -4.75790       -1.20160
C         -2.02380       -5.94270       -1.88540
C         -0.65190       -6.15460       -2.01690
C         -0.17170       -7.28280       -2.64710
C         -1.03610       -8.24430       -3.16550
S         -0.31640       -9.68330       -3.90420
C         -1.32670       -9.95380       -5.40590
C         -1.32690       -8.74110       -6.31400
C         -2.40250       -8.02330       -3.02260
F         -3.29810       -8.92910       -3.46970
C         -2.89670       -6.88870       -2.41190
C         -3.49370       -3.92810       -1.80010
C         -4.04150       -2.78930       -1.15540
C         -3.67290       -2.46860        0.16640
C         -4.34470       -1.41470        0.92920
C         -5.73460       -1.27840        0.86690
C         -6.39210       -0.37760        1.67320
C         -5.70650        0.43200        2.58290
S         -6.69860        1.51090        3.56340
C         -5.77920        1.78190        5.12580
C         -5.05710        3.11440        5.15830
C         -4.32060        0.32010        2.59990
C         -3.64890       -0.58180        1.79990
F         -3.56440        1.09770        3.40770
C         -2.66340       -3.24470        0.72140
S         -1.90080       -2.97260        2.26520
C         -4.81500       -2.00910       -2.04780
C         -4.85600       -2.51470       -3.31690
S         -4.01820       -4.04130       -3.46360
C         -5.26180       -1.80530       -4.48200
S         -5.94750       -0.18710       -4.35630
C         -5.57830       -0.06090       -6.09520
N         -5.12070       -1.17040       -6.58030
N         -4.95180       -2.12620       -5.70060
C         -5.45110        1.26240       -6.60330
C         -4.50140        1.61870       -7.50180
C         -3.82480        2.87270       -7.39560
C         -4.09380        3.88630       -6.51570
C         -2.94080        4.56540       -6.06090
C         -2.88200        5.35000       -4.89430
C         -4.12520        5.76930       -4.23160
C         -4.41060        5.39940       -2.91780
C         -5.61410        5.73720       -2.33890
C         -6.58120        6.45940       -3.03730
S         -8.07160        6.83600       -2.16380
C         -9.39020        6.76020       -3.43230
C         -9.47050        5.39790       -4.09160
C         -6.26910        6.85170       -4.33580
F         -7.13150        7.59220       -5.06750
C         -5.07620        6.50000       -4.93580
C         -1.62900        5.49410       -4.32830
C         -0.44130        5.01490       -4.93590
C         -0.48790        4.38560       -6.19570
C          0.76360        3.97580       -6.84260
C          0.97120        2.69770       -7.35750
C          2.18190        2.35780       -7.92220
C          3.22860        3.27360       -8.01360
S          4.71710        2.72540       -8.79310
C          6.05410        3.50780       -7.81550
C          5.98230        3.13300       -6.34890
C          2.99650        4.55650       -7.52520
C          1.80050        4.90220       -6.93180
F          3.94340        5.51650       -7.61510
C         -1.75540        4.09770       -6.68600
S         -2.14430        2.93040       -7.92900
C          0.63690        4.95320       -4.00850
C          0.27990        5.31600       -2.74390
S         -1.33100        6.01970       -2.69190
C          0.80600        4.82200       -1.50510
C         -0.02140        4.38150       -0.51650
C          0.61280        3.54320        0.42910
C         -0.04000        2.74300        1.37490
C         -1.51760        2.78030        1.34780
C         -2.25760        3.71690        2.06130
C         -3.60560        3.86750        1.81770
C         -4.27550        3.09380        0.86510
S         -5.97920        3.48590        0.64710
C         -6.58750        2.47240       -0.75280
C         -8.01960        2.88460       -1.03510
C         -3.52920        2.12640        0.20200
F         -4.08870        1.29890       -0.71710
C         -2.17420        1.97680        0.42560
C          0.75380        1.89930        2.12480
C          2.16380        1.83650        1.96400
C          2.80430        2.58960        0.96490
C          4.23510        2.44800        0.67010
C          4.81820        1.19340        0.49680
C          6.14640        1.07980        0.14800
C          6.95130        2.20440       -0.02750
S          8.64570        1.92420       -0.44730
C          9.04760        3.26340       -1.62950
C          8.13350        3.25200       -2.83820
C          6.36490        3.44840        0.18530
C          5.02930        3.57800        0.50730
F          7.08960        4.58370        0.08210
C          2.00140        3.42930        0.20310
S          2.46600        4.32210       -1.23530
C          2.74170        0.90700        2.88100
C          1.82610        0.27720        3.64470
S          0.19590        0.76790        3.32850
H          7.38290       -0.89850       10.97000
H          8.50670       -5.54180        9.12240
H          7.50230       -6.83840        7.51560
H          5.04110       -3.79110        7.55390
H          0.80650       -2.67530        6.79790
H          0.66140       -0.41830        7.66960
H          1.01150        3.15120        8.52950
H          0.51010        1.46170        8.67490
H         -0.79620        2.66160        6.87740
H          0.71810        3.05950        6.05820
H          0.18630        1.38220        6.16240
H          4.93010       -2.04350        5.81570
H          3.62580       -8.94310        4.88700
H          3.84180      -10.87250        3.37890
H          2.89550      -11.86090       -1.40350
H          3.28640      -10.13440       -1.46940
H          0.94680      -11.37600        0.08210
H          1.30650       -9.64830        0.00570
H          0.80790      -10.50460       -1.45320
H          3.31630       -6.37470        1.47550
H          0.99360       -6.48240        2.33840
H         -0.56500       -5.87410        0.54710
H          0.04130       -5.41170       -1.65330
H          0.89070       -7.44070       -2.75010
H         -2.33230      -10.24200       -5.10760
H         -0.83960      -10.80450       -5.88270
H         -1.86760       -8.97150       -7.22970
H         -1.81280       -7.89380       -5.83330
H         -0.30890       -8.45560       -6.57150
H         -3.96520       -6.77020       -2.32330
H         -6.30470       -1.91800        0.21070
H         -7.46770       -0.29470        1.63370
H         -5.10220        0.94290        5.26620
H         -6.55540        1.74440        5.89110
H         -4.62670        3.27020        6.14570
H         -5.75210        3.92430        4.94820
H         -4.25710        3.13830        4.42390
H         -2.57210       -0.58610        1.85350
H         -5.23590       -1.05430       -1.78620
H         -5.92340        2.01940       -5.99350
H         -4.04060        0.85700       -8.11430
H         -5.06500        4.05850       -6.08860
H         -3.70090        4.81090       -2.35780
H         -5.83240        5.44260       -1.32400
H         -9.23420        7.55630       -4.15640
H        -10.29400        6.97270       -2.86130
H         -9.62470        4.62030       -3.34630
H        -10.30190        5.38020       -4.79320
H         -8.55630        5.17700       -4.63930
H         -4.88900        6.82120       -5.94910
H          0.19630        1.95220       -7.28200
H          2.34290        1.36130       -8.30280
H          6.02080        4.58470       -7.96420
H          6.95930        3.11370       -8.27740
H          5.98470        2.05150       -6.22980
H          6.84110        3.54500       -5.82320
H          5.07860        3.52860       -5.88910
H          1.67500        5.91020       -6.56670
H          1.58630        4.50250       -4.23820
H         -1.07850        4.57550       -0.50510
H         -1.76760        4.34500        2.78910
H         -4.17590        4.61510        2.34730
H         -5.94780        2.66100       -1.61400
H         -6.52860        1.42400       -0.46260
H         -8.40820        2.30500       -1.86990
H         -8.06970        3.94250       -1.28320
H         -8.64420        2.70640       -0.16260
H         -1.63600        1.23610       -0.14650
H          4.21400        0.30480        0.59810
H          6.58990        0.10800       -0.00410
H          9.02280        4.21770       -1.10830
H         10.07630        3.04090       -1.91340
H          8.45990        4.01110       -3.54660
H          7.10580        3.46890       -2.55230
H          8.15830        2.28020       -3.32730
H          4.62810        4.56820        0.65760
H          3.80000        0.73910        2.96570
H          1.99610       -0.46990        4.39510
