155

C         10.19250       -4.36480        9.59020
C         10.43130       -4.09790        8.29000
C          9.26300       -4.20390        7.48070
C          9.14830       -4.03470        6.09210
C         10.26470       -3.56400        5.28970
S         10.77750       -4.40330        3.85710
C         12.02170       -3.24580        3.53130
C         12.87120       -3.35360        2.31370
C         12.14370       -2.78300        1.09380
C         12.01980       -2.26660        4.47960
Cl        13.10300       -0.93540        4.48530
C         11.02890       -2.44620        5.48180
Cl        10.77940       -1.31380        6.74740
C          7.91320       -4.31730        5.52270
C          6.78400       -4.70320        6.28480
C          6.88110       -4.80840        7.68310
C          5.72560       -5.14100        8.49970
S          4.75850       -6.55270        8.18450
C          3.68780       -6.21340        9.50080
C          2.56300       -7.12710        9.84230
C          3.00870       -8.19200       10.84720
C          4.07600       -5.07620       10.14370
C          5.22670       -4.46350        9.57810
Cl         5.84650       -2.97360       10.15340
Cl         3.25550       -4.41910       11.49930
C          8.13040       -4.57350        8.24590
S          8.54330       -4.75800        9.92630
C          5.63740       -4.88270        5.47330
C          5.86610       -4.65210        4.14810
S          7.52350       -4.19000        3.83150
C          4.90800       -4.71920        3.09070
C          3.62540       -5.17860        3.17450
C          2.89510       -5.03730        1.97050
C          1.53630       -5.32070        1.74890
C          0.71920       -5.92480        2.78950
S          1.18000       -7.43290        3.52430
C         -0.20830       -7.44500        4.55690
C         -0.47540       -8.58030        5.48240
C         -1.27790       -9.67840        4.78030
C         -0.97640       -6.34240        4.32940
Cl        -2.43360       -6.00430        5.16840
C         -0.45270       -5.47570        3.33170
Cl        -1.19080       -3.98200        2.93440
C          1.01290       -4.97700        0.50890
C          1.79550       -4.37780       -0.51260
C          3.15660       -4.10160       -0.29280
C          3.97030       -3.44260       -1.30160
S          5.47550       -4.12880       -1.83490
C          5.77430       -2.82040       -2.92650
C          6.97240       -2.81050       -3.81020
C          6.71590       -3.60990       -5.09000
C          4.75730       -1.91430       -2.87110
C          3.73520       -2.26000       -1.94680
Cl         2.39450       -1.23480       -1.62880
Cl         4.70040       -0.47960       -3.81070
C          3.67580       -4.44660        0.94640
S          5.29390       -4.11600        1.49420
C          1.02600       -4.09970       -1.66600
C         -0.28950       -4.43640       -1.52700
S         -0.63910       -5.19520        0.00510
C         -1.36340       -4.06470       -2.38190
S         -1.12940       -2.96400       -3.73740
C         -2.89440       -2.91790       -3.81560
N         -3.45090       -3.69950       -2.94040
N         -2.61450       -4.32510       -2.15740
C         -3.55720       -1.94730       -4.61930
C         -4.85080       -1.61940       -4.41520
C         -5.47360       -0.44610       -4.93310
C         -4.97970        0.49330       -5.79730
C         -5.76210        1.66850       -5.86590
C         -5.45620        2.86720       -6.53960
C         -4.37220        2.91940       -7.50150
S         -3.16340        4.16840       -7.47060
C         -2.34320        3.51590       -8.84650
C         -1.08710        4.12870       -9.35880
C          0.13250        3.58360       -8.61130
C         -2.97810        2.39380       -9.29200
Cl        -2.45910        1.47300      -10.64400
C         -4.12900        2.05270       -8.53450
Cl        -5.14470        0.73180       -8.94680
C         -6.21500        3.98290       -6.20720
C         -7.31590        3.92460       -5.31310
C         -7.70500        2.69650       -4.74630
C         -8.85490        2.57550       -3.86740
S         -9.06760        3.60190       -2.47910
C        -10.52030        2.79220       -2.00120
C        -11.29670        3.24250       -0.81400
C        -12.15670        4.46270       -1.15170
C        -10.81810        1.79660       -2.88310
C         -9.87240        1.66300       -3.93510
Cl       -10.05880        0.52070       -5.19770
Cl       -12.19360        0.78000       -2.75190
C         -6.89450        1.60050       -5.01420
S         -6.99930        0.05420       -4.23010
C         -7.87660        5.20340       -5.09050
C         -7.23010        6.19810       -5.76610
S         -5.93300        5.60640       -6.77330
C         -7.43610        7.59870       -5.63830
S         -8.51410        8.27700       -4.42310
C         -7.92060        9.84430       -4.98200
N         -7.06500        9.73350       -5.95230
N         -6.79660        8.50790       -6.30950
C         -8.28640       11.08530       -4.38790
C         -9.11560       11.19940       -3.33420
C         -9.42080       12.42700       -2.67980
S         -8.72310       13.98240       -3.12620
C         -9.65520       14.63130       -1.78210
N        -10.34910       13.72060       -1.17220
N        -10.22100       12.51570       -1.65980
C         -9.64490       16.01290       -1.39260
C         -8.92070       16.95500       -1.98820
H         10.89230       -4.35830       10.40280
H         11.40150       -3.85170        7.90040
H         13.11550       -4.40170        2.13260
H         13.79720       -2.80090        2.48160
H         11.90850       -1.73360        1.25260
H         12.77090       -2.87000        0.21080
H         11.21660       -3.32450        0.92120
H          2.20090       -7.61060        8.93340
H          1.75180       -6.53730       10.27360
H          2.17650       -8.84690       11.09060
H          3.36120       -7.72160       11.76130
H          3.81530       -8.79060       10.43060
H          4.67520       -5.15560        5.86300
H          3.20660       -5.59100        4.07290
H         -1.04010       -8.20800        6.33930
H          0.47220       -8.99080        5.83520
H         -1.47020      -10.49770        5.46760
H         -0.72590      -10.06120        3.92530
H         -2.22910       -9.28470        4.43190
H          7.81940       -3.24290       -3.27520
H          7.20950       -1.77630       -4.06660
H          5.88200       -3.18230       -5.64080
H          6.48030       -4.64340       -4.84810
H          7.59800       -3.59160       -5.72420
H          1.42020       -3.64650       -2.55720
H         -2.93580       -1.38820       -5.30250
H         -5.42430       -2.20870       -3.71340
H         -4.05340        0.37650       -6.32790
H         -0.99460        3.90160      -10.42250
H         -1.13630        5.21140       -9.23350
H          1.04020        4.03950       -8.99690
H          0.05390        3.80480       -7.54960
H          0.20260        2.50630       -8.73870
H        -11.93630        2.42170       -0.48510
H        -10.60940        3.49690       -0.00500
H        -12.72100        4.77430       -0.27720
H        -12.85480        4.22290       -1.94970
H        -11.52850        5.28960       -1.47450
H         -8.70780        5.38920       -4.43470
H         -7.81340       11.95420       -4.82560
H         -9.59150       10.32860       -2.90280
H        -10.28430       16.23440       -0.54980
H         -8.28100       16.73230       -2.82710
H         -8.94460       17.97720       -1.65470
