228

C          1.75160       -4.05560       11.54410
C          2.26670       -3.78770       10.32720
C          1.29660       -3.86390        9.28360
C          1.48140       -3.64320        7.91000
C          2.74970       -3.15380        7.35520
C          3.34510       -3.76650        6.25420
C          4.49090       -3.24400        5.69510
C          5.09420       -2.09620        6.20840
S          6.57040       -1.54540        5.40360
C          6.50900        0.28190        5.50340
C          5.26590        0.84980        4.84860
C          4.51090       -1.51870        7.33180
F          5.05510       -0.42750        7.91700
C          3.35400       -2.02190        7.89220
C          0.38010       -3.85350        7.09320
C         -0.89640       -4.18910        7.60150
C         -1.09720       -4.35320        8.98030
C         -2.45300       -4.61870        9.47750
C         -2.75430       -5.71400       10.28300
C         -4.06330       -5.99940       10.61190
C         -5.11650       -5.19650       10.17430
S         -6.76180       -5.68030       10.58870
C         -7.73870       -5.12770        9.12980
C         -8.98490       -5.98070        9.00750
C         -4.78890       -4.05360        9.44930
C         -3.48900       -3.77530        9.08520
F         -5.74030       -3.17140        9.07150
C          0.02210       -4.22510        9.78750
S          0.05890       -4.41700       11.52010
C         -1.85880       -4.31990        6.57000
C         -1.36760       -4.07530        5.32510
S          0.33740       -3.67720        5.35580
C         -2.11870       -4.07580        4.11360
C         -1.69040       -3.97860        2.82500
C         -2.74850       -3.92340        1.87950
C         -2.68240       -3.76000        0.48560
C         -1.42110       -3.70790       -0.26260
C         -1.27200       -4.45520       -1.43350
C         -0.13630       -4.34580       -2.20270
C          0.91130       -3.49910       -1.83730
S          2.25920       -3.37240       -2.96940
C          3.03900       -1.75550       -2.58290
C          3.83040       -1.28130       -3.78510
C          0.79080       -2.83880       -0.62010
F          1.80790       -2.08760       -0.13100
C         -0.35380       -2.91880        0.14760
C         -3.89780       -3.63980       -0.17660
C         -5.16040       -3.75180        0.45210
C         -5.22640       -3.97570        1.83380
C         -6.49170       -4.08570        2.57160
C         -7.49610       -3.12760        2.45020
C         -8.64820       -3.22180        3.20340
C         -8.83890       -4.26110        4.11050
S        -10.31610       -4.25750        5.08860
C        -10.87800       -6.00010        5.00090
C        -11.12430       -6.44210        3.57250
C         -7.82180       -5.20140        4.23210
C         -6.67540       -5.13410        3.46870
F         -7.92210       -6.21770        5.11830
C         -4.01500       -4.03140        2.50750
S         -3.86310       -4.16510        4.23540
C         -6.23160       -3.58140       -0.46620
C         -5.82760       -3.28170       -1.73020
S         -4.08100       -3.25360       -1.86320
C         -6.63730       -2.85530       -2.84410
C         -7.78110       -2.11790       -2.66720
S         -8.54440       -1.69090       -1.14700
S         -8.46380       -1.55360       -4.16600
C         -7.16460       -2.29190       -5.03780
O         -7.18020       -2.18640       -6.38340
C         -6.28160       -2.96270       -4.23590
C         -5.18900       -3.72980       -4.81050
C         -4.81540       -4.94340       -4.39000
C         -3.85260       -5.79590       -5.05530
C         -4.08890       -7.14360       -5.12950
S         -5.45670       -7.97720       -4.40880
S         -2.95820       -7.98700       -6.14940
C         -2.12450       -6.50020       -6.44590
O         -1.00870       -6.56540       -7.20070
C         -2.67790       -5.42030       -5.80380
C         -2.00620       -4.13780       -5.79320
C         -2.02810       -3.30430       -4.74100
C         -1.27610       -2.09800       -4.60010
C         -0.48920       -1.41890       -5.48350
C          0.16540       -0.29690       -4.91550
C          1.06340        0.58350       -5.53870
C          1.51540        0.41140       -6.92550
C          2.04410       -0.79920       -7.37160
C          2.54830       -0.91630       -8.64930
C          2.55050        0.16110       -9.53440
S          3.32920       -0.09420      -11.10190
C          2.33350        0.88100      -12.28950
C          0.88060        0.45170      -12.30040
C          2.01050        1.35970       -9.07910
F          1.98000        2.45500       -9.87010
C          1.49090        1.48690       -7.80750
C          1.55270        1.62130       -4.76040
C          1.25570        1.78170       -3.38410
C          0.41420        0.85750       -2.73910
C          0.26870        0.81290       -1.28040
C          1.39250        0.94360       -0.46470
C          1.33000        0.70300        0.89340
C          0.14130        0.30160        1.49130
S         -0.04980       -0.19330        3.17290
C          1.65810       -0.32750        3.80700
C          2.41810       -1.50240        3.22290
C         -0.99400        0.25190        0.67830
C         -0.94830        0.50090       -0.67390
F         -2.17770       -0.08740        1.23070
C         -0.15840       -0.12370       -3.54500
S         -1.27640       -1.34970       -3.01670
C          1.88800        2.93230       -2.84040
C          2.66660        3.60090       -3.73580
S          2.66800        2.83780       -5.31590
C          3.42450        4.79870       -3.58070
C          4.20280        5.36940       -4.54130
C          4.82180        6.57640       -4.13550
C          5.67150        7.39320       -4.89620
C          6.05840        6.98130       -6.25120
C          5.85990        7.80830       -7.35440
C          6.12700        7.35110       -8.62710
C          6.62560        6.06800       -8.85350
S          6.90760        5.60200      -10.53360
C          6.56330        3.80330      -10.59780
C          5.16200        3.45650      -10.13860
C          6.89240        5.28370       -7.73510
F          7.45040        4.05800       -7.85670
C          6.59600        5.71470       -6.45850
C          6.09290        8.57100       -4.29980
C          5.73860        8.93370       -2.97690
C          4.91480        8.09810       -2.20570
C          4.55360        8.43950       -0.82390
C          3.22500        8.44200       -0.41230
C          2.87600        8.76690        0.88470
C          3.84980        9.09410        1.82170
S          3.55180        9.52710        3.49960
C          1.72980        9.41500        3.65450
C          1.34370        9.76000        5.08060
C          5.18050        9.07900        1.39620
C          5.54010        8.76410        0.10620
F          6.15200        9.38350        2.28140
C          4.45840        6.93930       -2.81660
S          3.41260        5.73500       -2.09730
C          6.29550       10.19780       -2.61800
C          7.04400       10.74060       -3.59920
S          7.12740        9.77000       -5.02990
H          2.26370       -4.07140       12.48640
H          3.30330       -3.56120       10.15480
H          2.90920       -4.66130        5.83830
H          4.94510       -3.71840        4.83900
H          7.40820        0.58700        4.96780
H          6.59700        0.58550        6.54380
H          5.31100        1.93700        4.86220
H          5.19300        0.51480        3.81560
H          4.36960        0.53670        5.38110
H          2.92580       -1.51290        8.74210
H         -1.96320       -6.36840       10.61500
H         -4.29900       -6.87020       11.20350
H         -7.10160       -5.24280        8.25420
H         -7.99540       -4.07830        9.26550
H         -8.72150       -7.02630        8.86490
H         -9.59800       -5.89550        9.90190
H         -9.56670       -5.64430        8.15200
H         -3.29190       -2.88360        8.51010
H         -2.88210       -4.60170        6.74090
H         -0.64730       -3.94930        2.56850
H         -2.05660       -5.12860       -1.74300
H         -0.04340       -4.90500       -3.12110
H          3.68440       -1.88840       -1.71570
H          2.23700       -1.05910       -2.34620
H          4.59680       -2.00530       -4.05180
H          3.17640       -1.13490       -4.64100
H          4.31210       -0.33330       -3.55440
H         -0.40760       -2.33990        1.05440
H         -7.36450       -2.29450        1.77730
H         -9.42240       -2.47650        3.10840
H        -11.80300       -5.99640        5.57740
H        -10.15000       -6.63400        5.50240
H        -11.52540       -7.45360        3.56550
H        -10.19840       -6.43460        2.99980
H        -11.83660       -5.77960        3.08540
H         -5.92930       -5.90420        3.58840
H         -7.26120       -3.70920       -0.18750
H         -9.31450       -0.73200       -1.66060
H         -6.43960       -2.68110       -6.75670
H         -4.70550       -3.29780       -5.68000
H         -5.34610       -5.40800       -3.56830
H         -5.01500       -9.20340       -4.67830
H         -0.57000       -5.70530       -7.22010
H         -1.39150       -3.90120       -6.65510
H         -2.61420       -3.57700       -3.87870
H         -0.37980       -1.69250       -6.51740
H          2.08210       -1.64770       -6.70480
H          2.97070       -1.85090       -8.98490
H          2.81360        0.66800      -13.24480
H          2.44580        1.93890      -12.06410
H          0.40650        0.66220      -11.34360
H          0.34470        0.99610      -13.07520
H          0.79840       -0.61460      -12.50120
H          1.07230        2.43750       -7.51690
H          2.34880        1.18290       -0.90430
H          2.23010        0.79910        1.47730
H          1.51500       -0.46080        4.88000
H          2.16130        0.62390        3.63740
H          3.41660       -1.54270        3.65270
H          1.90920       -2.43250        3.46220
H          2.50460       -1.42250        2.14290
H         -1.86310        0.44610       -1.24160
H          1.74500        3.27300       -1.83040
H          4.31280        4.94660       -5.52390
H          5.45600        8.79900       -7.21480
H          5.94050        7.98140       -9.48260
H          6.69610        3.57120      -11.65490
H          7.32180        3.27650      -10.02330
H          4.42010        4.02080      -10.69970
H          5.02920        3.67190       -9.08020
H          4.98650        2.39370      -10.29350
H          6.81380        5.06100       -5.62770
H          2.44620        8.20690       -1.12150
H          1.83390        8.76560        1.15850
H          1.28740       10.12000        2.95030
H          1.43310        8.39580        3.40620
H          1.81090        9.06980        5.77910
H          0.26390        9.69730        5.19660
H          1.66390       10.76930        5.32830
H          6.58510        8.75090       -0.16130
H          6.12190       10.67260       -1.66960
H          7.56740       11.67660       -3.58680
