271

C        -14.94190      -11.92490        7.42350
C        -13.69950      -12.36170        7.13550
C        -12.89680      -11.37140        6.49400
C        -11.55710      -11.47150        6.08940
C        -10.80220      -12.72420        6.21780
C        -11.30800      -13.92380        5.71810
C        -10.58840      -15.09190        5.83750
C         -9.33540      -15.11870        6.45290
S         -8.51600      -16.67960        6.50180
C         -7.40040      -16.58120        7.95850
C         -7.03080      -17.98950        8.38100
C         -8.83320      -13.90910        6.92300
F         -7.61210      -13.83520        7.50040
C         -9.54970      -12.73370        6.82040
C        -10.98340      -10.32870        5.55160
C        -11.68950       -9.11110        5.39350
C        -13.03250       -9.01210        5.79040
C        -13.77550       -7.75680        5.62920
C        -15.02050       -7.73320        5.00230
C        -15.68310       -6.54230        4.80080
C        -15.14350       -5.32860        5.22620
S        -16.08440       -3.86900        4.91510
C        -14.80730       -2.57170        4.65310
C        -15.38880       -1.48200        3.77440
C        -13.92520       -5.37320        5.89770
C        -13.24060       -6.55600        6.08700
F        -13.36670       -4.24560        6.39780
C        -13.60520      -10.15670        6.32680
S        -15.23260      -10.28830        6.94240
C        -10.88960       -8.11640        4.77730
C         -9.62790       -8.53340        4.47950
S         -9.35290      -10.20210        4.93760
C         -8.58930       -7.74710        3.89880
C         -7.36690       -8.13990        3.44520
C         -6.57390       -7.06990        2.95360
C         -5.27150       -7.11860        2.43020
C         -4.51320       -8.37400        2.37230
C         -4.38370       -9.18390        3.50030
C         -3.66390      -10.35690        3.44220
C         -3.03630      -10.77040        2.26690
S         -2.10320      -12.26800        2.35370
C         -2.28800      -13.04230        0.70540
C         -3.73910      -13.31000        0.36110
C         -3.15060       -9.93720        1.15820
F         -2.54590      -10.24390       -0.01050
C         -3.88270       -8.76740        1.19740
C         -4.72570       -5.91590        2.00590
C         -5.39350       -4.67030        2.12230
C         -6.69280       -4.62090        2.64970
C         -7.42570       -3.36650        2.86000
C         -6.85610       -2.30480        3.56050
C         -7.60450       -1.18850        3.87130
C         -8.93880       -1.08470        3.48870
S         -9.85390        0.34870        3.98360
C        -11.38840       -0.39820        4.65480
C        -11.09700       -1.40150        5.75210
C         -9.47340       -2.12070        2.72970
C         -8.74370       -3.25130        2.42820
F        -10.74240       -2.05460        2.27180
C         -7.25490       -5.83030        3.03040
S         -8.83890       -6.01970        3.73190
C         -4.59560       -3.59530        1.65570
C         -3.36480       -3.98190        1.21660
S         -3.12590       -5.71410        1.34150
C         -2.30880       -3.15970        0.72460
C         -1.12700       -3.56440        0.18050
C         -0.26300       -2.49450       -0.16230
C          1.00220       -2.56610       -0.76530
C          1.65110       -3.84300       -1.08490
C          1.78560       -4.84730       -0.12760
C          2.46650       -6.00900       -0.42240
C          3.02430       -6.22450       -1.68130
S          3.87540       -7.75020       -1.95010
C          5.33520       -7.26340       -2.94500
C          6.16320       -6.19570       -2.25940
C          2.83860       -5.23410       -2.64140
F          3.29360       -5.39730       -3.90220
C          2.18440       -4.05460       -2.35220
C          1.63580       -1.36030       -1.02480
C          1.07590       -0.10040       -0.69890
C         -0.20440       -0.02740       -0.12210
C         -0.82880        1.26630        0.17850
C         -1.38340        1.53100        1.42920
C         -1.96760        2.75100        1.69380
C         -2.01800        3.75820        0.73170
S         -2.74150        5.29950        1.20940
C         -3.69580        5.81990       -0.26440
C         -4.72960        4.78660       -0.66390
C         -1.44280        3.48670       -0.50590
C         -0.87170        2.26350       -0.79130
F         -1.41720        4.42250       -1.48260
C         -0.83640       -1.23310        0.14020
S         -2.42850       -1.41310        0.83250
C          1.97220        0.96180       -0.97700
C          3.15790        0.54870       -1.51210
S          3.23110       -1.18870       -1.70360
C          4.26960        1.35530       -1.90300
C          4.44900        2.69030       -1.68420
C          5.67280        3.18860       -2.19580
C          6.15630        4.50940       -2.14900
C          5.33060        5.60170       -1.62250
C          3.98890        5.72300       -1.99210
C          3.19890        6.71610       -1.46110
C          3.70160        7.64600       -0.54690
S          2.53170        8.79130        0.10110
C          3.51290       10.17960        0.78810
C          2.58640       11.35920        1.00490
C          5.04890        7.53610       -0.21740
F          5.63010        8.38940        0.65890
C          5.85150        6.54120       -0.73960
C          7.43220        4.71400       -2.65230
C          8.20170        3.69470       -3.26800
C          7.69580        2.38750       -3.36240
C          8.41960        1.33270       -4.07890
C          8.93600        1.57750       -5.34780
C          9.57860        0.59270       -6.06990
C          9.73160       -0.68530       -5.54480
S         10.53350       -2.03150       -6.34750
C         10.71510       -1.47330       -8.07680
C          9.38790       -1.42730       -8.81040
C          9.22470       -0.91470       -4.26360
C          8.57830        0.05890       -3.53600
F          9.37270       -2.13690       -3.71330
C          6.45130        2.16490       -2.79130
S          5.61700        0.63660       -2.75550
C          9.45310        4.17710       -3.73200
C          9.63960        5.50900       -3.51640
S          8.27110        6.24100       -2.68870
C         10.70710        6.37070       -3.89860
S         11.01700        7.77640       -2.95150
C         12.10280        8.44060       -4.12430
C         12.30490        7.54930       -5.16660
C         11.48670        6.37060       -5.05800
C         11.45370        5.45500       -6.12270
C         12.23420        5.67290       -7.23340
C         12.18280        4.73740       -8.35820
O         12.84200        4.81590       -9.36530
C         13.08220        6.81350       -7.31120
C         13.11200        7.73650       -6.31590
C         12.45040        9.84530       -4.02120
C         11.49300       10.77910       -3.90310
C         10.07860       10.47600       -4.00890
C          9.04130       10.93230       -3.26290
C          7.79180       10.32340       -3.58150
C          6.55010       10.51870       -2.96500
C          6.38320       11.37340       -1.78280
C          5.42100       12.38070       -1.74630
C          5.21320       13.10790       -0.59410
C          5.95150       12.85670        0.56100
S          5.57360       13.80830        1.99990
C          5.81210       12.60190        3.36820
C          4.86390       12.94500        4.49980
C          6.94560       11.88450        0.49370
F          7.74210       11.63850        1.55610
C          7.15720       11.14190       -0.65020
C          5.47570        9.80930       -3.48630
C          5.61080        8.81900       -4.48700
C          6.87060        8.56140       -5.05050
C          7.13210        7.39600       -5.89980
C          8.00930        7.44290       -6.98290
C          8.35510        6.29460       -7.66270
C          7.83870        5.05340       -7.29960
S          8.43620        3.63820       -8.18230
C          6.95500        2.58690       -8.41510
C          5.85000        3.32270       -9.14420
C          6.94660        5.01980       -6.23220
C          6.58930        6.16150       -5.54680
F          6.40310        3.85170       -5.81640
C          7.90980        9.39000       -4.63950
S          9.53840        9.34020       -5.24120
C          4.35400        8.21910       -4.79790
C          3.33600        8.71880       -4.06870
S          3.82230        9.94250       -2.95220
H        -15.73600      -12.46490        7.90120
H        -13.34050      -13.34510        7.37900
H        -12.26500      -13.93290        5.21900
H        -10.98310      -16.01850        5.45020
H         -7.94230      -16.06260        8.74790
H         -6.51650      -16.01040        7.67860
H         -6.51630      -18.50710        7.57460
H         -6.37290      -17.95100        9.24650
H         -7.92110      -18.55720        8.64230
H         -9.11660      -11.83130        7.22270
H        -15.45440       -8.65220        4.64020
H        -16.63640       -6.52680        4.29610
H        -14.51600       -2.17800        5.62600
H        -13.95400       -3.04920        4.17410
H        -16.26080       -1.03550        4.24670
H        -15.68800       -1.88810        2.81100
H        -14.64470       -0.70530        3.61090
H        -12.30450       -6.53180        6.62350
H        -11.24050       -7.12810        4.54050
H         -7.04940       -9.16740        3.45000
H         -4.83730       -8.88020        4.43130
H         -3.56870      -10.98210        4.31640
H         -1.73100      -13.97380        0.80880
H         -1.79840      -12.41800       -0.03840
H         -4.29360      -12.37890        0.26070
H         -3.79710      -13.84620       -0.58390
H         -4.21120      -13.91170        1.13500
H         -3.95470       -8.17530        0.29840
H         -5.83620       -2.37840        3.90570
H         -7.17120       -0.38110        4.44080
H        -11.93970        0.45970        5.03930
H        -11.94850       -0.84240        3.83470
H        -10.52130       -0.93770        6.55010
H        -10.53130       -2.24780        5.36570
H        -12.02870       -1.77900        6.16710
H         -9.20890       -4.02740        1.84070
H         -4.92510       -2.57180        1.63420
H         -0.88870       -4.60010        0.01600
H          1.39040       -4.69610        0.86530
H          2.58910       -6.77500        0.32740
H          5.89250       -8.19580       -3.03620
H          5.00300       -6.95110       -3.93260
H          7.06010       -5.99770       -2.84250
H          5.60450       -5.26600       -2.16850
H          6.45780       -6.52070       -1.26360
H          2.07260       -3.32070       -3.13510
H         -1.34490        0.77920        2.20200
H         -2.39700        2.95140        2.66290
H         -4.17020        6.74540        0.06190
H         -3.00510        6.04300       -1.07440
H         -5.38830        4.56170        0.17230
H         -4.25210        3.86250       -0.98490
H         -5.32860        5.16790       -1.48840
H         -0.46870        2.09640       -1.77850
H          1.75000        1.99180       -0.76790
H          3.74650        3.29490       -1.14090
H          3.57080        5.04100       -2.71690
H          2.15860        6.79110       -1.73810
H          4.28880       10.42000        0.06350
H          3.96030        9.84910        1.72470
H          2.14100       11.66620        0.06160
H          3.14520       12.19750        1.41390
H          1.78900       11.09760        1.69710
H          6.87720        6.49040       -0.40970
H          8.80800        2.54950       -5.79490
H          9.95900        0.83820       -7.04810
H         11.37480       -2.22080       -8.51720
H         11.22920       -0.51310       -8.08260
H          8.69920       -0.73570       -8.32950
H          9.54540       -1.10550       -9.83810
H          8.93010       -2.41350       -8.81980
H          8.22170       -0.18030       -2.54680
H         10.20540        3.54010       -4.15910
H         10.80170        4.59640       -6.07790
H         11.45250        3.91530       -8.21540
H         13.68380        6.92390       -8.20040
H         13.73340        8.61640       -6.38210
H         13.49520       10.12290       -4.03650
H         11.75620       11.81510       -3.73980
H          9.15620       11.65410       -2.47400
H          4.83330       12.59140       -2.62620
H          4.46050       13.87980       -0.56270
H          5.60180       11.61300        2.96470
H          6.85050       12.65370        3.69210
H          5.05750       13.94940        4.86920
H          5.00010       12.24070        5.31770
H          3.83070       12.89490        4.16300
H          7.91130       10.37020       -0.64030
H          8.40740        8.38830       -7.31500
H          9.04350        6.34020       -8.49220
H          7.33190        1.75510       -9.01060
H          6.63030        2.21150       -7.44650
H          6.21090        3.71140      -10.09430
H          5.47840        4.15480       -8.54860
H          5.02300        2.64200       -9.33590
H          5.92310        6.06740       -4.70330
H          4.22530        7.47420       -5.56200
H          2.29770        8.45570       -4.11750
