
  xtb     03052208303D
 energy: -471.653845648906 gnorm: 0.000316511256 xtb: 6.4.1 (unknown)
271297  0     0  0            999 V2000
  -14.9419  -11.9249    7.4235 C   0  0  0  0  0  0  0  0  0  0  0  0
  -13.6995  -12.3617    7.1355 C   0  0  0  0  0  0  0  0  0  0  0  0
  -12.8968  -11.3714    6.4940 C   0  0  0  0  0  0  0  0  0  0  0  0
  -11.5571  -11.4715    6.0894 C   0  0  0  0  0  0  0  0  0  0  0  0
  -10.8022  -12.7242    6.2178 C   0  0  0  0  0  0  0  0  0  0  0  0
  -11.3080  -13.9238    5.7181 C   0  0  0  0  0  0  0  0  0  0  0  0
  -10.5884  -15.0919    5.8375 C   0  0  0  0  0  0  0  0  0  0  0  0
   -9.3354  -15.1187    6.4529 C   0  0  0  0  0  0  0  0  0  0  0  0
   -8.5160  -16.6796    6.5018 S   0  0  0  0  0  0  0  0  0  0  0  0
   -7.4004  -16.5812    7.9585 C   0  0  0  0  0  0  0  0  0  0  0  0
   -7.0308  -17.9895    8.3810 C   0  0  0  0  0  0  0  0  0  0  0  0
   -8.8332  -13.9091    6.9230 C   0  0  0  0  0  0  0  0  0  0  0  0
   -7.6121  -13.8352    7.5004 F   0  0  0  0  0  0  0  0  0  0  0  0
   -9.5497  -12.7337    6.8204 C   0  0  0  0  0  0  0  0  0  0  0  0
  -10.9834  -10.3287    5.5516 C   0  0  0  0  0  0  0  0  0  0  0  0
  -11.6895   -9.1111    5.3935 C   0  0  0  0  0  0  0  0  0  0  0  0
  -13.0325   -9.0121    5.7904 C   0  0  0  0  0  0  0  0  0  0  0  0
  -13.7755   -7.7568    5.6292 C   0  0  0  0  0  0  0  0  0  0  0  0
  -15.0205   -7.7332    5.0023 C   0  0  0  0  0  0  0  0  0  0  0  0
  -15.6831   -6.5423    4.8008 C   0  0  0  0  0  0  0  0  0  0  0  0
  -15.1435   -5.3286    5.2262 C   0  0  0  0  0  0  0  0  0  0  0  0
  -16.0844   -3.8690    4.9151 S   0  0  0  0  0  0  0  0  0  0  0  0
  -14.8073   -2.5717    4.6531 C   0  0  0  0  0  0  0  0  0  0  0  0
  -15.3888   -1.4820    3.7744 C   0  0  0  0  0  0  0  0  0  0  0  0
  -13.9252   -5.3732    5.8977 C   0  0  0  0  0  0  0  0  0  0  0  0
  -13.2406   -6.5560    6.0870 C   0  0  0  0  0  0  0  0  0  0  0  0
  -13.3667   -4.2456    6.3978 F   0  0  0  0  0  0  0  0  0  0  0  0
  -13.6052  -10.1567    6.3268 C   0  0  0  0  0  0  0  0  0  0  0  0
  -15.2326  -10.2883    6.9424 S   0  0  0  0  0  0  0  0  0  0  0  0
  -10.8896   -8.1164    4.7773 C   0  0  0  0  0  0  0  0  0  0  0  0
   -9.6279   -8.5334    4.4795 C   0  0  0  0  0  0  0  0  0  0  0  0
   -9.3529  -10.2021    4.9376 S   0  0  0  0  0  0  0  0  0  0  0  0
   -8.5893   -7.7471    3.8988 C   0  0  0  0  0  0  0  0  0  0  0  0
   -7.3669   -8.1399    3.4452 C   0  0  0  0  0  0  0  0  0  0  0  0
   -6.5739   -7.0699    2.9536 C   0  0  0  0  0  0  0  0  0  0  0  0
   -5.2715   -7.1186    2.4302 C   0  0  0  0  0  0  0  0  0  0  0  0
   -4.5132   -8.3740    2.3723 C   0  0  0  0  0  0  0  0  0  0  0  0
   -4.3837   -9.1839    3.5003 C   0  0  0  0  0  0  0  0  0  0  0  0
   -3.6639  -10.3569    3.4422 C   0  0  0  0  0  0  0  0  0  0  0  0
   -3.0363  -10.7704    2.2669 C   0  0  0  0  0  0  0  0  0  0  0  0
   -2.1032  -12.2680    2.3537 S   0  0  0  0  0  0  0  0  0  0  0  0
   -2.2880  -13.0423    0.7054 C   0  0  0  0  0  0  0  0  0  0  0  0
   -3.7391  -13.3100    0.3611 C   0  0  0  0  0  0  0  0  0  0  0  0
   -3.1506   -9.9372    1.1582 C   0  0  0  0  0  0  0  0  0  0  0  0
   -2.5459  -10.2439   -0.0105 F   0  0  0  0  0  0  0  0  0  0  0  0
   -3.8827   -8.7674    1.1974 C   0  0  0  0  0  0  0  0  0  0  0  0
   -4.7257   -5.9159    2.0059 C   0  0  0  0  0  0  0  0  0  0  0  0
   -5.3935   -4.6703    2.1223 C   0  0  0  0  0  0  0  0  0  0  0  0
   -6.6928   -4.6209    2.6497 C   0  0  0  0  0  0  0  0  0  0  0  0
   -7.4257   -3.3665    2.8600 C   0  0  0  0  0  0  0  0  0  0  0  0
   -6.8561   -2.3048    3.5605 C   0  0  0  0  0  0  0  0  0  0  0  0
   -7.6045   -1.1885    3.8713 C   0  0  0  0  0  0  0  0  0  0  0  0
   -8.9388   -1.0847    3.4887 C   0  0  0  0  0  0  0  0  0  0  0  0
   -9.8539    0.3487    3.9836 S   0  0  0  0  0  0  0  0  0  0  0  0
  -11.3884   -0.3982    4.6548 C   0  0  0  0  0  0  0  0  0  0  0  0
  -11.0970   -1.4015    5.7521 C   0  0  0  0  0  0  0  0  0  0  0  0
   -9.4734   -2.1207    2.7297 C   0  0  0  0  0  0  0  0  0  0  0  0
   -8.7437   -3.2513    2.4282 C   0  0  0  0  0  0  0  0  0  0  0  0
  -10.7424   -2.0546    2.2718 F   0  0  0  0  0  0  0  0  0  0  0  0
   -7.2549   -5.8303    3.0304 C   0  0  0  0  0  0  0  0  0  0  0  0
   -8.8389   -6.0197    3.7319 S   0  0  0  0  0  0  0  0  0  0  0  0
   -4.5956   -3.5953    1.6557 C   0  0  0  0  0  0  0  0  0  0  0  0
   -3.3648   -3.9819    1.2166 C   0  0  0  0  0  0  0  0  0  0  0  0
   -3.1259   -5.7141    1.3415 S   0  0  0  0  0  0  0  0  0  0  0  0
   -2.3088   -3.1597    0.7246 C   0  0  0  0  0  0  0  0  0  0  0  0
   -1.1270   -3.5644    0.1805 C   0  0  0  0  0  0  0  0  0  0  0  0
   -0.2630   -2.4945   -0.1623 C   0  0  0  0  0  0  0  0  0  0  0  0
    1.0022   -2.5661   -0.7653 C   0  0  0  0  0  0  0  0  0  0  0  0
    1.6511   -3.8430   -1.0849 C   0  0  0  0  0  0  0  0  0  0  0  0
    1.7856   -4.8473   -0.1276 C   0  0  0  0  0  0  0  0  0  0  0  0
    2.4665   -6.0090   -0.4224 C   0  0  0  0  0  0  0  0  0  0  0  0
    3.0243   -6.2245   -1.6813 C   0  0  0  0  0  0  0  0  0  0  0  0
    3.8754   -7.7502   -1.9501 S   0  0  0  0  0  0  0  0  0  0  0  0
    5.3352   -7.2634   -2.9450 C   0  0  0  0  0  0  0  0  0  0  0  0
    6.1632   -6.1957   -2.2594 C   0  0  0  0  0  0  0  0  0  0  0  0
    2.8386   -5.2341   -2.6414 C   0  0  0  0  0  0  0  0  0  0  0  0
    3.2936   -5.3973   -3.9022 F   0  0  0  0  0  0  0  0  0  0  0  0
    2.1844   -4.0546   -2.3522 C   0  0  0  0  0  0  0  0  0  0  0  0
    1.6358   -1.3603   -1.0248 C   0  0  0  0  0  0  0  0  0  0  0  0
    1.0759   -0.1004   -0.6989 C   0  0  0  0  0  0  0  0  0  0  0  0
   -0.2044   -0.0274   -0.1221 C   0  0  0  0  0  0  0  0  0  0  0  0
   -0.8288    1.2663    0.1785 C   0  0  0  0  0  0  0  0  0  0  0  0
   -1.3834    1.5310    1.4292 C   0  0  0  0  0  0  0  0  0  0  0  0
   -1.9676    2.7510    1.6938 C   0  0  0  0  0  0  0  0  0  0  0  0
   -2.0180    3.7582    0.7317 C   0  0  0  0  0  0  0  0  0  0  0  0
   -2.7415    5.2995    1.2094 S   0  0  0  0  0  0  0  0  0  0  0  0
   -3.6958    5.8199   -0.2644 C   0  0  0  0  0  0  0  0  0  0  0  0
   -4.7296    4.7866   -0.6639 C   0  0  0  0  0  0  0  0  0  0  0  0
   -1.4428    3.4867   -0.5059 C   0  0  0  0  0  0  0  0  0  0  0  0
   -0.8717    2.2635   -0.7913 C   0  0  0  0  0  0  0  0  0  0  0  0
   -1.4172    4.4225   -1.4826 F   0  0  0  0  0  0  0  0  0  0  0  0
   -0.8364   -1.2331    0.1402 C   0  0  0  0  0  0  0  0  0  0  0  0
   -2.4285   -1.4131    0.8325 S   0  0  0  0  0  0  0  0  0  0  0  0
    1.9722    0.9618   -0.9770 C   0  0  0  0  0  0  0  0  0  0  0  0
    3.1579    0.5487   -1.5121 C   0  0  0  0  0  0  0  0  0  0  0  0
    3.2311   -1.1887   -1.7036 S   0  0  0  0  0  0  0  0  0  0  0  0
    4.2696    1.3553   -1.9030 C   0  0  0  0  0  0  0  0  0  0  0  0
    4.4490    2.6903   -1.6842 C   0  0  0  0  0  0  0  0  0  0  0  0
    5.6728    3.1886   -2.1958 C   0  0  0  0  0  0  0  0  0  0  0  0
    6.1563    4.5094   -2.1490 C   0  0  0  0  0  0  0  0  0  0  0  0
    5.3306    5.6017   -1.6225 C   0  0  0  0  0  0  0  0  0  0  0  0
    3.9889    5.7230   -1.9921 C   0  0  0  0  0  0  0  0  0  0  0  0
    3.1989    6.7161   -1.4611 C   0  0  0  0  0  0  0  0  0  0  0  0
    3.7016    7.6460   -0.5469 C   0  0  0  0  0  0  0  0  0  0  0  0
    2.5317    8.7913    0.1011 S   0  0  0  0  0  0  0  0  0  0  0  0
    3.5129   10.1796    0.7881 C   0  0  0  0  0  0  0  0  0  0  0  0
    2.5864   11.3592    1.0049 C   0  0  0  0  0  0  0  0  0  0  0  0
    5.0489    7.5361   -0.2174 C   0  0  0  0  0  0  0  0  0  0  0  0
    5.6301    8.3894    0.6589 F   0  0  0  0  0  0  0  0  0  0  0  0
    5.8515    6.5412   -0.7396 C   0  0  0  0  0  0  0  0  0  0  0  0
    7.4322    4.7140   -2.6523 C   0  0  0  0  0  0  0  0  0  0  0  0
    8.2017    3.6947   -3.2680 C   0  0  0  0  0  0  0  0  0  0  0  0
    7.6958    2.3875   -3.3624 C   0  0  0  0  0  0  0  0  0  0  0  0
    8.4196    1.3327   -4.0789 C   0  0  0  0  0  0  0  0  0  0  0  0
    8.9360    1.5775   -5.3478 C   0  0  0  0  0  0  0  0  0  0  0  0
    9.5786    0.5927   -6.0699 C   0  0  0  0  0  0  0  0  0  0  0  0
    9.7316   -0.6853   -5.5448 C   0  0  0  0  0  0  0  0  0  0  0  0
   10.5335   -2.0315   -6.3475 S   0  0  0  0  0  0  0  0  0  0  0  0
   10.7151   -1.4733   -8.0768 C   0  0  0  0  0  0  0  0  0  0  0  0
    9.3879   -1.4273   -8.8104 C   0  0  0  0  0  0  0  0  0  0  0  0
    9.2247   -0.9147   -4.2636 C   0  0  0  0  0  0  0  0  0  0  0  0
    8.5783    0.0589   -3.5360 C   0  0  0  0  0  0  0  0  0  0  0  0
    9.3727   -2.1369   -3.7133 F   0  0  0  0  0  0  0  0  0  0  0  0
    6.4513    2.1649   -2.7913 C   0  0  0  0  0  0  0  0  0  0  0  0
    5.6170    0.6366   -2.7555 S   0  0  0  0  0  0  0  0  0  0  0  0
    9.4531    4.1771   -3.7320 C   0  0  0  0  0  0  0  0  0  0  0  0
    9.6396    5.5090   -3.5164 C   0  0  0  0  0  0  0  0  0  0  0  0
    8.2711    6.2410   -2.6887 S   0  0  0  0  0  0  0  0  0  0  0  0
   10.7071    6.3707   -3.8986 C   0  0  0  0  0  0  0  0  0  0  0  0
   11.0170    7.7764   -2.9515 S   0  0  0  0  0  0  0  0  0  0  0  0
   12.1028    8.4406   -4.1243 C   0  0  0  0  0  0  0  0  0  0  0  0
   12.3049    7.5493   -5.1666 C   0  0  0  0  0  0  0  0  0  0  0  0
   11.4867    6.3706   -5.0580 C   0  0  0  0  0  0  0  0  0  0  0  0
   11.4537    5.4550   -6.1227 C   0  0  0  0  0  0  0  0  0  0  0  0
   12.2342    5.6729   -7.2334 C   0  0  0  0  0  0  0  0  0  0  0  0
   12.1828    4.7374   -8.3582 C   0  0  0  0  0  0  0  0  0  0  0  0
   12.8420    4.8159   -9.3653 O   0  0  0  0  0  0  0  0  0  0  0  0
   13.0822    6.8135   -7.3112 C   0  0  0  0  0  0  0  0  0  0  0  0
   13.1120    7.7365   -6.3159 C   0  0  0  0  0  0  0  0  0  0  0  0
   12.4504    9.8453   -4.0212 C   0  0  0  0  0  0  0  0  0  0  0  0
   11.4930   10.7791   -3.9031 C   0  0  0  0  0  0  0  0  0  0  0  0
   10.0786   10.4760   -4.0089 C   0  0  0  0  0  0  0  0  0  0  0  0
    9.0413   10.9323   -3.2629 C   0  0  0  0  0  0  0  0  0  0  0  0
    7.7918   10.3234   -3.5815 C   0  0  0  0  0  0  0  0  0  0  0  0
    6.5501   10.5187   -2.9650 C   0  0  0  0  0  0  0  0  0  0  0  0
    6.3832   11.3734   -1.7828 C   0  0  0  0  0  0  0  0  0  0  0  0
    5.4210   12.3807   -1.7463 C   0  0  0  0  0  0  0  0  0  0  0  0
    5.2132   13.1079   -0.5941 C   0  0  0  0  0  0  0  0  0  0  0  0
    5.9515   12.8567    0.5610 C   0  0  0  0  0  0  0  0  0  0  0  0
    5.5736   13.8083    1.9999 S   0  0  0  0  0  0  0  0  0  0  0  0
    5.8121   12.6019    3.3682 C   0  0  0  0  0  0  0  0  0  0  0  0
    4.8639   12.9450    4.4998 C   0  0  0  0  0  0  0  0  0  0  0  0
    6.9456   11.8845    0.4937 C   0  0  0  0  0  0  0  0  0  0  0  0
    7.7421   11.6385    1.5561 F   0  0  0  0  0  0  0  0  0  0  0  0
    7.1572   11.1419   -0.6502 C   0  0  0  0  0  0  0  0  0  0  0  0
    5.4757    9.8093   -3.4863 C   0  0  0  0  0  0  0  0  0  0  0  0
    5.6108    8.8190   -4.4870 C   0  0  0  0  0  0  0  0  0  0  0  0
    6.8706    8.5614   -5.0505 C   0  0  0  0  0  0  0  0  0  0  0  0
    7.1321    7.3960   -5.8998 C   0  0  0  0  0  0  0  0  0  0  0  0
    8.0093    7.4429   -6.9829 C   0  0  0  0  0  0  0  0  0  0  0  0
    8.3551    6.2946   -7.6627 C   0  0  0  0  0  0  0  0  0  0  0  0
    7.8387    5.0534   -7.2996 C   0  0  0  0  0  0  0  0  0  0  0  0
    8.4362    3.6382   -8.1823 S   0  0  0  0  0  0  0  0  0  0  0  0
    6.9550    2.5869   -8.4151 C   0  0  0  0  0  0  0  0  0  0  0  0
    5.8500    3.3227   -9.1442 C   0  0  0  0  0  0  0  0  0  0  0  0
    6.9466    5.0198   -6.2322 C   0  0  0  0  0  0  0  0  0  0  0  0
    6.5893    6.1615   -5.5468 C   0  0  0  0  0  0  0  0  0  0  0  0
    6.4031    3.8517   -5.8164 F   0  0  0  0  0  0  0  0  0  0  0  0
    7.9098    9.3900   -4.6395 C   0  0  0  0  0  0  0  0  0  0  0  0
    9.5384    9.3402   -5.2412 S   0  0  0  0  0  0  0  0  0  0  0  0
    4.3540    8.2191   -4.7979 C   0  0  0  0  0  0  0  0  0  0  0  0
    3.3360    8.7188   -4.0687 C   0  0  0  0  0  0  0  0  0  0  0  0
    3.8223    9.9425   -2.9522 S   0  0  0  0  0  0  0  0  0  0  0  0
  -15.7360  -12.4649    7.9012 H   0  0  0  0  0  0  0  0  0  0  0  0
  -13.3405  -13.3451    7.3790 H   0  0  0  0  0  0  0  0  0  0  0  0
  -12.2650  -13.9329    5.2190 H   0  0  0  0  0  0  0  0  0  0  0  0
  -10.9831  -16.0185    5.4502 H   0  0  0  0  0  0  0  0  0  0  0  0
   -7.9423  -16.0626    8.7479 H   0  0  0  0  0  0  0  0  0  0  0  0
   -6.5165  -16.0104    7.6786 H   0  0  0  0  0  0  0  0  0  0  0  0
   -6.5163  -18.5071    7.5746 H   0  0  0  0  0  0  0  0  0  0  0  0
   -6.3729  -17.9510    9.2465 H   0  0  0  0  0  0  0  0  0  0  0  0
   -7.9211  -18.5572    8.6423 H   0  0  0  0  0  0  0  0  0  0  0  0
   -9.1166  -11.8313    7.2227 H   0  0  0  0  0  0  0  0  0  0  0  0
  -15.4544   -8.6522    4.6402 H   0  0  0  0  0  0  0  0  0  0  0  0
  -16.6364   -6.5268    4.2961 H   0  0  0  0  0  0  0  0  0  0  0  0
  -14.5160   -2.1780    5.6260 H   0  0  0  0  0  0  0  0  0  0  0  0
  -13.9540   -3.0492    4.1741 H   0  0  0  0  0  0  0  0  0  0  0  0
  -16.2608   -1.0355    4.2467 H   0  0  0  0  0  0  0  0  0  0  0  0
  -15.6880   -1.8881    2.8110 H   0  0  0  0  0  0  0  0  0  0  0  0
  -14.6447   -0.7053    3.6109 H   0  0  0  0  0  0  0  0  0  0  0  0
  -12.3045   -6.5318    6.6235 H   0  0  0  0  0  0  0  0  0  0  0  0
  -11.2405   -7.1281    4.5405 H   0  0  0  0  0  0  0  0  0  0  0  0
   -7.0494   -9.1674    3.4500 H   0  0  0  0  0  0  0  0  0  0  0  0
   -4.8373   -8.8802    4.4313 H   0  0  0  0  0  0  0  0  0  0  0  0
   -3.5687  -10.9821    4.3164 H   0  0  0  0  0  0  0  0  0  0  0  0
   -1.7310  -13.9738    0.8088 H   0  0  0  0  0  0  0  0  0  0  0  0
   -1.7984  -12.4180   -0.0384 H   0  0  0  0  0  0  0  0  0  0  0  0
   -4.2936  -12.3789    0.2607 H   0  0  0  0  0  0  0  0  0  0  0  0
   -3.7971  -13.8462   -0.5839 H   0  0  0  0  0  0  0  0  0  0  0  0
   -4.2112  -13.9117    1.1350 H   0  0  0  0  0  0  0  0  0  0  0  0
   -3.9547   -8.1753    0.2984 H   0  0  0  0  0  0  0  0  0  0  0  0
   -5.8362   -2.3784    3.9057 H   0  0  0  0  0  0  0  0  0  0  0  0
   -7.1712   -0.3811    4.4408 H   0  0  0  0  0  0  0  0  0  0  0  0
  -11.9397    0.4597    5.0393 H   0  0  0  0  0  0  0  0  0  0  0  0
  -11.9485   -0.8424    3.8347 H   0  0  0  0  0  0  0  0  0  0  0  0
  -10.5213   -0.9377    6.5501 H   0  0  0  0  0  0  0  0  0  0  0  0
  -10.5313   -2.2478    5.3657 H   0  0  0  0  0  0  0  0  0  0  0  0
  -12.0287   -1.7790    6.1671 H   0  0  0  0  0  0  0  0  0  0  0  0
   -9.2089   -4.0274    1.8407 H   0  0  0  0  0  0  0  0  0  0  0  0
   -4.9251   -2.5718    1.6342 H   0  0  0  0  0  0  0  0  0  0  0  0
   -0.8887   -4.6001    0.0160 H   0  0  0  0  0  0  0  0  0  0  0  0
    1.3904   -4.6961    0.8653 H   0  0  0  0  0  0  0  0  0  0  0  0
    2.5891   -6.7750    0.3274 H   0  0  0  0  0  0  0  0  0  0  0  0
    5.8925   -8.1958   -3.0362 H   0  0  0  0  0  0  0  0  0  0  0  0
    5.0030   -6.9511   -3.9326 H   0  0  0  0  0  0  0  0  0  0  0  0
    7.0601   -5.9977   -2.8425 H   0  0  0  0  0  0  0  0  0  0  0  0
    5.6045   -5.2660   -2.1685 H   0  0  0  0  0  0  0  0  0  0  0  0
    6.4578   -6.5207   -1.2636 H   0  0  0  0  0  0  0  0  0  0  0  0
    2.0726   -3.3207   -3.1351 H   0  0  0  0  0  0  0  0  0  0  0  0
   -1.3449    0.7792    2.2020 H   0  0  0  0  0  0  0  0  0  0  0  0
   -2.3970    2.9514    2.6629 H   0  0  0  0  0  0  0  0  0  0  0  0
   -4.1702    6.7454    0.0619 H   0  0  0  0  0  0  0  0  0  0  0  0
   -3.0051    6.0430   -1.0744 H   0  0  0  0  0  0  0  0  0  0  0  0
   -5.3883    4.5617    0.1723 H   0  0  0  0  0  0  0  0  0  0  0  0
   -4.2521    3.8625   -0.9849 H   0  0  0  0  0  0  0  0  0  0  0  0
   -5.3286    5.1679   -1.4884 H   0  0  0  0  0  0  0  0  0  0  0  0
   -0.4687    2.0964   -1.7785 H   0  0  0  0  0  0  0  0  0  0  0  0
    1.7500    1.9918   -0.7679 H   0  0  0  0  0  0  0  0  0  0  0  0
    3.7465    3.2949   -1.1409 H   0  0  0  0  0  0  0  0  0  0  0  0
    3.5708    5.0410   -2.7169 H   0  0  0  0  0  0  0  0  0  0  0  0
    2.1586    6.7911   -1.7381 H   0  0  0  0  0  0  0  0  0  0  0  0
    4.2888   10.4200    0.0635 H   0  0  0  0  0  0  0  0  0  0  0  0
    3.9603    9.8491    1.7247 H   0  0  0  0  0  0  0  0  0  0  0  0
    2.1410   11.6662    0.0616 H   0  0  0  0  0  0  0  0  0  0  0  0
    3.1452   12.1975    1.4139 H   0  0  0  0  0  0  0  0  0  0  0  0
    1.7890   11.0976    1.6971 H   0  0  0  0  0  0  0  0  0  0  0  0
    6.8772    6.4904   -0.4097 H   0  0  0  0  0  0  0  0  0  0  0  0
    8.8080    2.5495   -5.7949 H   0  0  0  0  0  0  0  0  0  0  0  0
    9.9590    0.8382   -7.0481 H   0  0  0  0  0  0  0  0  0  0  0  0
   11.3748   -2.2208   -8.5172 H   0  0  0  0  0  0  0  0  0  0  0  0
   11.2292   -0.5131   -8.0826 H   0  0  0  0  0  0  0  0  0  0  0  0
    8.6992   -0.7357   -8.3295 H   0  0  0  0  0  0  0  0  0  0  0  0
    9.5454   -1.1055   -9.8381 H   0  0  0  0  0  0  0  0  0  0  0  0
    8.9301   -2.4135   -8.8198 H   0  0  0  0  0  0  0  0  0  0  0  0
    8.2217   -0.1803   -2.5468 H   0  0  0  0  0  0  0  0  0  0  0  0
   10.2054    3.5401   -4.1591 H   0  0  0  0  0  0  0  0  0  0  0  0
   10.8017    4.5964   -6.0779 H   0  0  0  0  0  0  0  0  0  0  0  0
   11.4525    3.9153   -8.2154 H   0  0  0  0  0  0  0  0  0  0  0  0
   13.6838    6.9239   -8.2004 H   0  0  0  0  0  0  0  0  0  0  0  0
   13.7334    8.6164   -6.3821 H   0  0  0  0  0  0  0  0  0  0  0  0
   13.4952   10.1229   -4.0365 H   0  0  0  0  0  0  0  0  0  0  0  0
   11.7562   11.8151   -3.7398 H   0  0  0  0  0  0  0  0  0  0  0  0
    9.1562   11.6541   -2.4740 H   0  0  0  0  0  0  0  0  0  0  0  0
    4.8333   12.5914   -2.6262 H   0  0  0  0  0  0  0  0  0  0  0  0
    4.4605   13.8798   -0.5627 H   0  0  0  0  0  0  0  0  0  0  0  0
    5.6018   11.6130    2.9647 H   0  0  0  0  0  0  0  0  0  0  0  0
    6.8505   12.6537    3.6921 H   0  0  0  0  0  0  0  0  0  0  0  0
    5.0575   13.9494    4.8692 H   0  0  0  0  0  0  0  0  0  0  0  0
    5.0001   12.2407    5.3177 H   0  0  0  0  0  0  0  0  0  0  0  0
    3.8307   12.8949    4.1630 H   0  0  0  0  0  0  0  0  0  0  0  0
    7.9113   10.3702   -0.6403 H   0  0  0  0  0  0  0  0  0  0  0  0
    8.4074    8.3883   -7.3150 H   0  0  0  0  0  0  0  0  0  0  0  0
    9.0435    6.3402   -8.4922 H   0  0  0  0  0  0  0  0  0  0  0  0
    7.3319    1.7551   -9.0106 H   0  0  0  0  0  0  0  0  0  0  0  0
    6.6303    2.2115   -7.4465 H   0  0  0  0  0  0  0  0  0  0  0  0
    6.2109    3.7114  -10.0943 H   0  0  0  0  0  0  0  0  0  0  0  0
    5.4784    4.1548   -8.5486 H   0  0  0  0  0  0  0  0  0  0  0  0
    5.0230    2.6420   -9.3359 H   0  0  0  0  0  0  0  0  0  0  0  0
    5.9231    6.0674   -4.7033 H   0  0  0  0  0  0  0  0  0  0  0  0
    4.2253    7.4742   -5.5620 H   0  0  0  0  0  0  0  0  0  0  0  0
    2.2977    8.4557   -4.1175 H   0  0  0  0  0  0  0  0  0  0  0  0
  1  2  2  0  0  0  0
  2  3  1  0  0  0  0
  3  4  2  0  0  0  0
  4  5  1  0  0  0  0
  5  6  2  0  0  0  0
  6  7  1  0  0  0  0
  7  8  2  0  0  0  0
  8  9  1  0  0  0  0
  9 10  1  0  0  0  0
 10 11  1  0  0  0  0
  8 12  1  0  0  0  0
 12 13  1  0  0  0  0
 12 14  2  0  0  0  0
  4 15  1  0  0  0  0
 15 16  2  0  0  0  0
 16 17  1  0  0  0  0
 17 18  1  0  0  0  0
 18 19  2  0  0  0  0
 19 20  1  0  0  0  0
 20 21  2  0  0  0  0
 21 22  1  0  0  0  0
 22 23  1  0  0  0  0
 23 24  1  0  0  0  0
 21 25  1  0  0  0  0
 25 26  2  0  0  0  0
 25 27  1  0  0  0  0
 17 28  2  0  0  0  0
 28 29  1  0  0  0  0
 16 30  1  0  0  0  0
 30 31  2  0  0  0  0
 31 32  1  0  0  0  0
 31 33  1  0  0  0  0
 33 34  2  0  0  0  0
 34 35  1  0  0  0  0
 35 36  2  0  0  0  0
 36 37  1  0  0  0  0
 37 38  2  0  0  0  0
 38 39  1  0  0  0  0
 39 40  2  0  0  0  0
 40 41  1  0  0  0  0
 41 42  1  0  0  0  0
 42 43  1  0  0  0  0
 40 44  1  0  0  0  0
 44 45  1  0  0  0  0
 44 46  2  0  0  0  0
 36 47  1  0  0  0  0
 47 48  2  0  0  0  0
 48 49  1  0  0  0  0
 49 50  1  0  0  0  0
 50 51  2  0  0  0  0
 51 52  1  0  0  0  0
 52 53  2  0  0  0  0
 53 54  1  0  0  0  0
 54 55  1  0  0  0  0
 55 56  1  0  0  0  0
 53 57  1  0  0  0  0
 57 58  2  0  0  0  0
 57 59  1  0  0  0  0
 49 60  2  0  0  0  0
 60 61  1  0  0  0  0
 48 62  1  0  0  0  0
 62 63  2  0  0  0  0
 63 64  1  0  0  0  0
 63 65  1  0  0  0  0
 65 66  2  0  0  0  0
 66 67  1  0  0  0  0
 67 68  2  0  0  0  0
 68 69  1  0  0  0  0
 69 70  2  0  0  0  0
 70 71  1  0  0  0  0
 71 72  2  0  0  0  0
 72 73  1  0  0  0  0
 73 74  1  0  0  0  0
 74 75  1  0  0  0  0
 72 76  1  0  0  0  0
 76 77  1  0  0  0  0
 76 78  2  0  0  0  0
 68 79  1  0  0  0  0
 79 80  2  0  0  0  0
 80 81  1  0  0  0  0
 81 82  1  0  0  0  0
 82 83  2  0  0  0  0
 83 84  1  0  0  0  0
 84 85  2  0  0  0  0
 85 86  1  0  0  0  0
 86 87  1  0  0  0  0
 87 88  1  0  0  0  0
 85 89  1  0  0  0  0
 89 90  2  0  0  0  0
 89 91  1  0  0  0  0
 81 92  2  0  0  0  0
 92 93  1  0  0  0  0
 80 94  1  0  0  0  0
 94 95  2  0  0  0  0
 95 96  1  0  0  0  0
 95 97  1  0  0  0  0
 97 98  2  0  0  0  0
 98 99  1  0  0  0  0
 99100  2  0  0  0  0
100101  1  0  0  0  0
101102  2  0  0  0  0
102103  1  0  0  0  0
103104  2  0  0  0  0
104105  1  0  0  0  0
105106  1  0  0  0  0
106107  1  0  0  0  0
104108  1  0  0  0  0
108109  1  0  0  0  0
108110  2  0  0  0  0
100111  1  0  0  0  0
111112  2  0  0  0  0
112113  1  0  0  0  0
113114  1  0  0  0  0
114115  2  0  0  0  0
115116  1  0  0  0  0
116117  2  0  0  0  0
117118  1  0  0  0  0
118119  1  0  0  0  0
119120  1  0  0  0  0
117121  1  0  0  0  0
121122  2  0  0  0  0
121123  1  0  0  0  0
113124  2  0  0  0  0
124125  1  0  0  0  0
112126  1  0  0  0  0
126127  2  0  0  0  0
127128  1  0  0  0  0
127129  1  0  0  0  0
129130  1  0  0  0  0
130131  1  0  0  0  0
131132  2  0  0  0  0
132133  1  0  0  0  0
133134  1  0  0  0  0
134135  2  0  0  0  0
135136  1  0  0  0  0
136137  2  0  0  0  0
135138  1  0  0  0  0
138139  2  0  0  0  0
131140  1  0  0  0  0
140141  2  0  0  0  0
141142  1  0  0  0  0
142143  2  0  0  0  0
143144  1  0  0  0  0
144145  2  0  0  0  0
145146  1  0  0  0  0
146147  2  0  0  0  0
147148  1  0  0  0  0
148149  2  0  0  0  0
149150  1  0  0  0  0
150151  1  0  0  0  0
151152  1  0  0  0  0
149153  1  0  0  0  0
153154  1  0  0  0  0
153155  2  0  0  0  0
145156  1  0  0  0  0
156157  2  0  0  0  0
157158  1  0  0  0  0
158159  1  0  0  0  0
159160  2  0  0  0  0
160161  1  0  0  0  0
161162  2  0  0  0  0
162163  1  0  0  0  0
163164  1  0  0  0  0
164165  1  0  0  0  0
162166  1  0  0  0  0
166167  2  0  0  0  0
166168  1  0  0  0  0
158169  2  0  0  0  0
169170  1  0  0  0  0
157171  1  0  0  0  0
171172  2  0  0  0  0
172173  1  0  0  0  0
 29  1  1  0  0  0  0
 61 33  1  0  0  0  0
 93 65  1  0  0  0  0
125 97  1  0  0  0  0
133129  2  0  0  0  0
170142  1  0  0  0  0
 28  3  1  0  0  0  0
 60 35  1  0  0  0  0
 92 67  1  0  0  0  0
124 99  1  0  0  0  0
139132  1  0  0  0  0
169144  1  0  0  0  0
 14  5  1  0  0  0  0
 32 15  1  0  0  0  0
 46 37  1  0  0  0  0
 64 47  1  0  0  0  0
 78 69  1  0  0  0  0
 96 79  1  0  0  0  0
110101  1  0  0  0  0
128111  1  0  0  0  0
155146  1  0  0  0  0
173156  1  0  0  0  0
 26 18  1  0  0  0  0
 58 50  1  0  0  0  0
 90 82  1  0  0  0  0
122114  1  0  0  0  0
167159  1  0  0  0  0
  1174  1  0  0  0  0
  2175  1  0  0  0  0
  6176  1  0  0  0  0
  7177  1  0  0  0  0
 10178  1  0  0  0  0
 10179  1  0  0  0  0
 11180  1  0  0  0  0
 11181  1  0  0  0  0
 11182  1  0  0  0  0
 14183  1  0  0  0  0
 19184  1  0  0  0  0
 20185  1  0  0  0  0
 23186  1  0  0  0  0
 23187  1  0  0  0  0
 24188  1  0  0  0  0
 24189  1  0  0  0  0
 24190  1  0  0  0  0
 26191  1  0  0  0  0
 30192  1  0  0  0  0
 34193  1  0  0  0  0
 38194  1  0  0  0  0
 39195  1  0  0  0  0
 42196  1  0  0  0  0
 42197  1  0  0  0  0
 43198  1  0  0  0  0
 43199  1  0  0  0  0
 43200  1  0  0  0  0
 46201  1  0  0  0  0
 51202  1  0  0  0  0
 52203  1  0  0  0  0
 55204  1  0  0  0  0
 55205  1  0  0  0  0
 56206  1  0  0  0  0
 56207  1  0  0  0  0
 56208  1  0  0  0  0
 58209  1  0  0  0  0
 62210  1  0  0  0  0
 66211  1  0  0  0  0
 70212  1  0  0  0  0
 71213  1  0  0  0  0
 74214  1  0  0  0  0
 74215  1  0  0  0  0
 75216  1  0  0  0  0
 75217  1  0  0  0  0
 75218  1  0  0  0  0
 78219  1  0  0  0  0
 83220  1  0  0  0  0
 84221  1  0  0  0  0
 87222  1  0  0  0  0
 87223  1  0  0  0  0
 88224  1  0  0  0  0
 88225  1  0  0  0  0
 88226  1  0  0  0  0
 90227  1  0  0  0  0
 94228  1  0  0  0  0
 98229  1  0  0  0  0
102230  1  0  0  0  0
103231  1  0  0  0  0
106232  1  0  0  0  0
106233  1  0  0  0  0
107234  1  0  0  0  0
107235  1  0  0  0  0
107236  1  0  0  0  0
110237  1  0  0  0  0
115238  1  0  0  0  0
116239  1  0  0  0  0
119240  1  0  0  0  0
119241  1  0  0  0  0
120242  1  0  0  0  0
120243  1  0  0  0  0
120244  1  0  0  0  0
122245  1  0  0  0  0
126246  1  0  0  0  0
134247  1  0  0  0  0
136248  1  0  0  0  0
138249  1  0  0  0  0
139250  1  0  0  0  0
140251  1  0  0  0  0
141252  1  0  0  0  0
143253  1  0  0  0  0
147254  1  0  0  0  0
148255  1  0  0  0  0
151256  1  0  0  0  0
151257  1  0  0  0  0
152258  1  0  0  0  0
152259  1  0  0  0  0
152260  1  0  0  0  0
155261  1  0  0  0  0
160262  1  0  0  0  0
161263  1  0  0  0  0
164264  1  0  0  0  0
164265  1  0  0  0  0
165266  1  0  0  0  0
165267  1  0  0  0  0
165268  1  0  0  0  0
167269  1  0  0  0  0
171270  1  0  0  0  0
172271  1  0  0  0  0
M  END
