
  xtb     03042205543D
 energy: -418.197352306728 gnorm: 0.000325968547 xtb: 6.4.1 (unknown)
240263  0     0  0            999 V2000
   -0.5209   -1.9862   16.0747 C   0  0  0  0  0  0  0  0  0  0  0  0
   -0.0107   -0.9524   15.3759 C   0  0  0  0  0  0  0  0  0  0  0  0
   -0.4181   -0.9501   14.0082 C   0  0  0  0  0  0  0  0  0  0  0  0
   -0.0794   -0.0299   13.0042 C   0  0  0  0  0  0  0  0  0  0  0  0
    0.7270    1.1646   13.2838 C   0  0  0  0  0  0  0  0  0  0  0  0
    1.8287    1.4884   12.4987 C   0  0  0  0  0  0  0  0  0  0  0  0
    2.5686    2.6309   12.7366 C   0  0  0  0  0  0  0  0  0  0  0  0
    2.2251    3.4978   13.7680 C   0  0  0  0  0  0  0  0  0  0  0  0
    3.0675    4.9872   14.1714 S   0  0  0  0  0  0  0  0  0  0  0  0
    4.2535    5.1914   12.7901 C   0  0  0  0  0  0  0  0  0  0  0  0
    4.9295    6.5425   12.9284 C   0  0  0  0  0  0  0  0  0  0  0  0
    1.1219    3.1555   14.5539 C   0  0  0  0  0  0  0  0  0  0  0  0
    0.7626    3.9716   15.5659 F   0  0  0  0  0  0  0  0  0  0  0  0
    0.3802    2.0189   14.3298 C   0  0  0  0  0  0  0  0  0  0  0  0
   -0.5697   -0.2900   11.7325 C   0  0  0  0  0  0  0  0  0  0  0  0
   -1.4156   -1.3879   11.4442 C   0  0  0  0  0  0  0  0  0  0  0  0
   -1.7794   -2.2927   12.4540 C   0  0  0  0  0  0  0  0  0  0  0  0
   -2.6750   -3.4145   12.1481 C   0  0  0  0  0  0  0  0  0  0  0  0
   -2.3378   -4.7280   12.4687 C   0  0  0  0  0  0  0  0  0  0  0  0
   -3.1456   -5.7743   12.0771 C   0  0  0  0  0  0  0  0  0  0  0  0
   -4.3260   -5.5551   11.3683 C   0  0  0  0  0  0  0  0  0  0  0  0
   -5.2703   -6.9607   10.8716 S   0  0  0  0  0  0  0  0  0  0  0  0
   -5.9501   -6.4456    9.2408 C   0  0  0  0  0  0  0  0  0  0  0  0
   -6.2010   -7.6775    8.3947 C   0  0  0  0  0  0  0  0  0  0  0  0
   -4.6878   -4.2333   11.1224 C   0  0  0  0  0  0  0  0  0  0  0  0
   -3.8764   -3.1790   11.4855 C   0  0  0  0  0  0  0  0  0  0  0  0
   -5.8576   -3.9358   10.5137 F   0  0  0  0  0  0  0  0  0  0  0  0
   -1.2460   -2.0612   13.7128 C   0  0  0  0  0  0  0  0  0  0  0  0
   -1.5247   -3.0352   15.1328 S   0  0  0  0  0  0  0  0  0  0  0  0
   -1.7809   -1.4270   10.0756 C   0  0  0  0  0  0  0  0  0  0  0  0
   -1.2689   -0.4006    9.3418 C   0  0  0  0  0  0  0  0  0  0  0  0
   -0.2844    0.6811   10.3078 S   0  0  0  0  0  0  0  0  0  0  0  0
   -1.4666   -0.1830    7.9465 C   0  0  0  0  0  0  0  0  0  0  0  0
   -0.8691    0.7248    7.1254 C   0  0  0  0  0  0  0  0  0  0  0  0
   -1.2992    0.6360    5.7760 C   0  0  0  0  0  0  0  0  0  0  0  0
   -0.8934    1.4174    4.6818 C   0  0  0  0  0  0  0  0  0  0  0  0
    0.1518    2.4406    4.8078 C   0  0  0  0  0  0  0  0  0  0  0  0
   -0.0658    3.7423    4.3613 C   0  0  0  0  0  0  0  0  0  0  0  0
    0.9257    4.6949    4.4654 C   0  0  0  0  0  0  0  0  0  0  0  0
    2.1674    4.3868    5.0137 C   0  0  0  0  0  0  0  0  0  0  0  0
    3.3704    5.6817    5.1375 S   0  0  0  0  0  0  0  0  0  0  0  0
    4.8749    4.8927    4.4522 C   0  0  0  0  0  0  0  0  0  0  0  0
    4.6601    4.4116    3.0314 C   0  0  0  0  0  0  0  0  0  0  0  0
    2.3643    3.0886    5.4740 C   0  0  0  0  0  0  0  0  0  0  0  0
    3.5357    2.7298    6.0446 F   0  0  0  0  0  0  0  0  0  0  0  0
    1.3846    2.1224    5.3688 C   0  0  0  0  0  0  0  0  0  0  0  0
   -1.5185    1.1646    3.4706 C   0  0  0  0  0  0  0  0  0  0  0  0
   -2.5238    0.1794    3.3032 C   0  0  0  0  0  0  0  0  0  0  0  0
   -2.9219   -0.6108    4.3932 C   0  0  0  0  0  0  0  0  0  0  0  0
   -3.9682   -1.6317    4.2636 C   0  0  0  0  0  0  0  0  0  0  0  0
   -5.1979   -1.3260    3.6822 C   0  0  0  0  0  0  0  0  0  0  0  0
   -6.1804   -2.2868    3.5728 C   0  0  0  0  0  0  0  0  0  0  0  0
   -5.9819   -3.5819    4.0449 C   0  0  0  0  0  0  0  0  0  0  0  0
   -7.3173   -4.7336    3.8904 S   0  0  0  0  0  0  0  0  0  0  0  0
   -6.4880   -6.2519    3.2865 C   0  0  0  0  0  0  0  0  0  0  0  0
   -5.7517   -6.0134    1.9837 C   0  0  0  0  0  0  0  0  0  0  0  0
   -4.7628   -3.8635    4.6530 C   0  0  0  0  0  0  0  0  0  0  0  0
   -3.7623   -2.9184    4.7504 C   0  0  0  0  0  0  0  0  0  0  0  0
   -4.5193   -5.0847    5.1765 F   0  0  0  0  0  0  0  0  0  0  0  0
   -2.2832   -0.3692    5.6000 C   0  0  0  0  0  0  0  0  0  0  0  0
   -2.6160   -1.1974    7.0957 S   0  0  0  0  0  0  0  0  0  0  0  0
   -2.9499    0.0820    1.9550 C   0  0  0  0  0  0  0  0  0  0  0  0
   -2.2975    0.9322    1.1158 C   0  0  0  0  0  0  0  0  0  0  0  0
   -1.1267    1.9342    1.9539 S   0  0  0  0  0  0  0  0  0  0  0  0
   -2.4645    1.0473   -0.2955 C   0  0  0  0  0  0  0  0  0  0  0  0
   -1.5988    1.5904   -1.1976 C   0  0  0  0  0  0  0  0  0  0  0  0
   -2.0508    1.5090   -2.5397 C   0  0  0  0  0  0  0  0  0  0  0  0
   -1.3895    1.9154   -3.7121 C   0  0  0  0  0  0  0  0  0  0  0  0
   -0.0208    2.4446   -3.6938 C   0  0  0  0  0  0  0  0  0  0  0  0
    0.9319    1.9127   -4.5601 C   0  0  0  0  0  0  0  0  0  0  0  0
    2.2456    2.3386   -4.5398 C   0  0  0  0  0  0  0  0  0  0  0  0
    2.6611    3.3153   -3.6428 C   0  0  0  0  0  0  0  0  0  0  0  0
    4.3005    3.9322   -3.4802 S   0  0  0  0  0  0  0  0  0  0  0  0
    5.2536    3.0251   -4.7450 C   0  0  0  0  0  0  0  0  0  0  0  0
    5.6197    1.6180   -4.3097 C   0  0  0  0  0  0  0  0  0  0  0  0
    1.6909    3.8583   -2.7962 C   0  0  0  0  0  0  0  0  0  0  0  0
    2.0528    4.8212   -1.9242 F   0  0  0  0  0  0  0  0  0  0  0  0
    0.3769    3.4474   -2.8112 C   0  0  0  0  0  0  0  0  0  0  0  0
   -2.0675    1.7106   -4.9041 C   0  0  0  0  0  0  0  0  0  0  0  0
   -3.3558    1.1264   -4.9876 C   0  0  0  0  0  0  0  0  0  0  0  0
   -4.0017    0.6924   -3.8176 C   0  0  0  0  0  0  0  0  0  0  0  0
   -5.3362    0.0835   -3.8515 C   0  0  0  0  0  0  0  0  0  0  0  0
   -6.3959    0.7145   -4.5017 C   0  0  0  0  0  0  0  0  0  0  0  0
   -7.6582    0.1624   -4.4826 C   0  0  0  0  0  0  0  0  0  0  0  0
   -7.9140   -1.0457   -3.8349 C   0  0  0  0  0  0  0  0  0  0  0  0
   -9.5681   -1.6637   -3.9078 S   0  0  0  0  0  0  0  0  0  0  0  0
   -9.8412   -2.4332   -2.2687 C   0  0  0  0  0  0  0  0  0  0  0  0
   -9.6111   -1.4571   -1.1328 C   0  0  0  0  0  0  0  0  0  0  0  0
   -6.8371   -1.6838   -3.2264 C   0  0  0  0  0  0  0  0  0  0  0  0
   -5.5741   -1.1285   -3.2123 C   0  0  0  0  0  0  0  0  0  0  0  0
   -6.9908   -2.8843   -2.6259 F   0  0  0  0  0  0  0  0  0  0  0  0
   -3.3198    0.8809   -2.6259 C   0  0  0  0  0  0  0  0  0  0  0  0
   -3.9054    0.4071   -1.0528 S   0  0  0  0  0  0  0  0  0  0  0  0
   -3.7920    0.9956   -6.3268 C   0  0  0  0  0  0  0  0  0  0  0  0
   -2.9076    1.4904   -7.2476 C   0  0  0  0  0  0  0  0  0  0  0  0
   -1.4732    2.1506   -6.4812 S   0  0  0  0  0  0  0  0  0  0  0  0
   -2.9897    1.3811   -8.6604 C   0  0  0  0  0  0  0  0  0  0  0  0
   -4.1019    0.2507   -9.3601 S   0  0  0  0  0  0  0  0  0  0  0  0
   -3.4124    0.4146  -10.9378 C   0  0  0  0  0  0  0  0  0  0  0  0
   -2.4274    1.3961  -10.9462 C   0  0  0  0  0  0  0  0  0  0  0  0
   -2.1766    1.9524   -9.6491 C   0  0  0  0  0  0  0  0  0  0  0  0
   -1.1943    2.9454   -9.5155 C   0  0  0  0  0  0  0  0  0  0  0  0
   -0.4795    3.3606  -10.6176 C   0  0  0  0  0  0  0  0  0  0  0  0
    0.5550    4.3852  -10.4590 C   0  0  0  0  0  0  0  0  0  0  0  0
    0.8815    4.8927   -9.4149 O   0  0  0  0  0  0  0  0  0  0  0  0
   -0.7407    2.8084  -11.8996 C   0  0  0  0  0  0  0  0  0  0  0  0
   -1.6931    1.8534  -12.0662 C   0  0  0  0  0  0  0  0  0  0  0  0
   -3.7386   -0.4775  -12.0217 C   0  0  0  0  0  0  0  0  0  0  0  0
   -2.7932   -1.2069  -12.6537 C   0  0  0  0  0  0  0  0  0  0  0  0
   -1.4402   -1.3746  -12.2264 C   0  0  0  0  0  0  0  0  0  0  0  0
   -0.9569   -1.1646  -10.5794 S   0  0  0  0  0  0  0  0  0  0  0  0
    0.6788   -1.6491  -10.8785 C   0  0  0  0  0  0  0  0  0  0  0  0
    0.8521   -1.9667  -12.2309 C   0  0  0  0  0  0  0  0  0  0  0  0
   -0.3547   -1.8251  -12.9922 C   0  0  0  0  0  0  0  0  0  0  0  0
   -0.3418   -2.1022  -14.3690 C   0  0  0  0  0  0  0  0  0  0  0  0
    0.8247   -2.5158  -14.9710 C   0  0  0  0  0  0  0  0  0  0  0  0
    0.8539   -2.8103  -16.4059 C   0  0  0  0  0  0  0  0  0  0  0  0
    1.8221   -3.1740  -17.0243 O   0  0  0  0  0  0  0  0  0  0  0  0
    2.0147   -2.6593  -14.2100 C   0  0  0  0  0  0  0  0  0  0  0  0
    2.0338   -2.3930  -12.8754 C   0  0  0  0  0  0  0  0  0  0  0  0
    1.6327   -1.6819   -9.8329 C   0  0  0  0  0  0  0  0  0  0  0  0
    1.3410   -1.4414   -8.5314 C   0  0  0  0  0  0  0  0  0  0  0  0
    2.2772   -1.5013   -7.4605 C   0  0  0  0  0  0  0  0  0  0  0  0
    3.6409   -1.5917   -7.4989 C   0  0  0  0  0  0  0  0  0  0  0  0
    4.2480   -1.6903   -6.2228 C   0  0  0  0  0  0  0  0  0  0  0  0
    5.6154   -1.8169   -5.9261 C   0  0  0  0  0  0  0  0  0  0  0  0
    6.6235   -1.9405   -6.9858 C   0  0  0  0  0  0  0  0  0  0  0  0
    6.4766   -2.8893   -7.9979 C   0  0  0  0  0  0  0  0  0  0  0  0
    7.4326   -3.0216   -8.9803 C   0  0  0  0  0  0  0  0  0  0  0  0
    8.5765   -2.2227   -8.9987 C   0  0  0  0  0  0  0  0  0  0  0  0
    9.7418   -2.5437  -10.2865 S   0  0  0  0  0  0  0  0  0  0  0  0
   10.4806   -0.9162  -10.6815 C   0  0  0  0  0  0  0  0  0  0  0  0
    9.4374    0.0913  -11.1206 C   0  0  0  0  0  0  0  0  0  0  0  0
    8.7214   -1.2990   -7.9679 C   0  0  0  0  0  0  0  0  0  0  0  0
    9.8136   -0.5077   -7.8883 F   0  0  0  0  0  0  0  0  0  0  0  0
    7.7650   -1.1471   -6.9840 C   0  0  0  0  0  0  0  0  0  0  0  0
    5.9600   -1.8668   -4.5825 C   0  0  0  0  0  0  0  0  0  0  0  0
    5.0017   -1.8699   -3.5410 C   0  0  0  0  0  0  0  0  0  0  0  0
    3.6337   -1.7824   -3.8380 C   0  0  0  0  0  0  0  0  0  0  0  0
    2.6246   -1.8782   -2.7717 C   0  0  0  0  0  0  0  0  0  0  0  0
    1.6604   -0.8915   -2.5927 C   0  0  0  0  0  0  0  0  0  0  0  0
    0.7321   -0.9983   -1.5754 C   0  0  0  0  0  0  0  0  0  0  0  0
    0.7366   -2.0878   -0.7187 C   0  0  0  0  0  0  0  0  0  0  0  0
   -0.4520   -2.1868    0.6111 S   0  0  0  0  0  0  0  0  0  0  0  0
    0.4920   -1.2764    1.8901 C   0  0  0  0  0  0  0  0  0  0  0  0
    1.7529   -1.9955    2.3217 C   0  0  0  0  0  0  0  0  0  0  0  0
    1.6839   -3.0835   -0.9229 C   0  0  0  0  0  0  0  0  0  0  0  0
    2.6275   -2.9847   -1.9271 C   0  0  0  0  0  0  0  0  0  0  0  0
    1.7096   -4.1685   -0.1293 F   0  0  0  0  0  0  0  0  0  0  0  0
    3.2915   -1.6518   -5.1748 C   0  0  0  0  0  0  0  0  0  0  0  0
    1.6742   -1.5034   -5.8074 S   0  0  0  0  0  0  0  0  0  0  0  0
    5.6198   -1.9545   -2.2583 C   0  0  0  0  0  0  0  0  0  0  0  0
    6.9640   -2.0296   -2.3279 C   0  0  0  0  0  0  0  0  0  0  0  0
    7.5784   -2.0020   -3.9444 S   0  0  0  0  0  0  0  0  0  0  0  0
   -0.3702   -2.2189   17.1108 H   0  0  0  0  0  0  0  0  0  0  0  0
    0.6475   -0.2148   15.7976 H   0  0  0  0  0  0  0  0  0  0  0  0
    2.1275    0.8281   11.6992 H   0  0  0  0  0  0  0  0  0  0  0  0
    3.4197    2.8394   12.1098 H   0  0  0  0  0  0  0  0  0  0  0  0
    4.9839    4.3839   12.8458 H   0  0  0  0  0  0  0  0  0  0  0  0
    3.6924    5.1299   11.8577 H   0  0  0  0  0  0  0  0  0  0  0  0
    5.4659    6.6058   13.8723 H   0  0  0  0  0  0  0  0  0  0  0  0
    5.6359    6.6871   12.1138 H   0  0  0  0  0  0  0  0  0  0  0  0
    4.1921    7.3411   12.8974 H   0  0  0  0  0  0  0  0  0  0  0  0
   -0.4797    1.8202   14.9503 H   0  0  0  0  0  0  0  0  0  0  0  0
   -1.4165   -4.9314   12.9921 H   0  0  0  0  0  0  0  0  0  0  0  0
   -2.8665   -6.7922   12.3002 H   0  0  0  0  0  0  0  0  0  0  0  0
   -6.8716   -5.8914    9.4119 H   0  0  0  0  0  0  0  0  0  0  0  0
   -5.2096   -5.7972    8.7751 H   0  0  0  0  0  0  0  0  0  0  0  0
   -6.9196   -8.3352    8.8782 H   0  0  0  0  0  0  0  0  0  0  0  0
   -6.5971   -7.3771    7.4270 H   0  0  0  0  0  0  0  0  0  0  0  0
   -5.2768   -8.2293    8.2388 H   0  0  0  0  0  0  0  0  0  0  0  0
   -4.2051   -2.1739   11.2700 H   0  0  0  0  0  0  0  0  0  0  0  0
   -2.3854   -2.2024    9.6405 H   0  0  0  0  0  0  0  0  0  0  0  0
   -0.1528    1.4441    7.4802 H   0  0  0  0  0  0  0  0  0  0  0  0
   -1.0222    4.0101    3.9397 H   0  0  0  0  0  0  0  0  0  0  0  0
    0.7551    5.7020    4.1190 H   0  0  0  0  0  0  0  0  0  0  0  0
    5.6180    5.6887    4.4909 H   0  0  0  0  0  0  0  0  0  0  0  0
    5.1832    4.0868    5.1150 H   0  0  0  0  0  0  0  0  0  0  0  0
    3.9095    3.6234    2.9975 H   0  0  0  0  0  0  0  0  0  0  0  0
    5.5924    4.0168    2.6327 H   0  0  0  0  0  0  0  0  0  0  0  0
    4.3279    5.2294    2.3957 H   0  0  0  0  0  0  0  0  0  0  0  0
    1.5952    1.1238    5.7203 H   0  0  0  0  0  0  0  0  0  0  0  0
   -5.3875   -0.3238    3.3292 H   0  0  0  0  0  0  0  0  0  0  0  0
   -7.1295   -2.0486    3.1183 H   0  0  0  0  0  0  0  0  0  0  0  0
   -7.3130   -6.9512    3.1511 H   0  0  0  0  0  0  0  0  0  0  0  0
   -5.8281   -6.6286    4.0649 H   0  0  0  0  0  0  0  0  0  0  0  0
   -5.3420   -6.9527    1.6179 H   0  0  0  0  0  0  0  0  0  0  0  0
   -6.4256   -5.6096    1.2311 H   0  0  0  0  0  0  0  0  0  0  0  0
   -4.9306   -5.3124    2.1231 H   0  0  0  0  0  0  0  0  0  0  0  0
   -2.8260   -3.2018    5.2050 H   0  0  0  0  0  0  0  0  0  0  0  0
   -3.6782   -0.6283    1.6079 H   0  0  0  0  0  0  0  0  0  0  0  0
   -0.6606    2.0256   -0.9017 H   0  0  0  0  0  0  0  0  0  0  0  0
    0.6521    1.1282   -5.2464 H   0  0  0  0  0  0  0  0  0  0  0  0
    2.9411    1.8905   -5.2301 H   0  0  0  0  0  0  0  0  0  0  0  0
    6.1504    3.6310   -4.8751 H   0  0  0  0  0  0  0  0  0  0  0  0
    4.6874    3.0410   -5.6752 H   0  0  0  0  0  0  0  0  0  0  0  0
    4.7343    1.0263   -4.0873 H   0  0  0  0  0  0  0  0  0  0  0  0
    6.1735    1.1209   -5.1040 H   0  0  0  0  0  0  0  0  0  0  0  0
    6.2401    1.6477   -3.4170 H   0  0  0  0  0  0  0  0  0  0  0  0
   -0.3295    3.9304   -2.1546 H   0  0  0  0  0  0  0  0  0  0  0  0
   -6.2331    1.6627   -4.9910 H   0  0  0  0  0  0  0  0  0  0  0  0
   -8.4811    0.6634   -4.9683 H   0  0  0  0  0  0  0  0  0  0  0  0
  -10.8851   -2.7436   -2.3145 H   0  0  0  0  0  0  0  0  0  0  0  0
   -9.2125   -3.3165   -2.1821 H   0  0  0  0  0  0  0  0  0  0  0  0
  -10.2286   -0.5702   -1.2598 H   0  0  0  0  0  0  0  0  0  0  0  0
   -8.5681   -1.1492   -1.0881 H   0  0  0  0  0  0  0  0  0  0  0  0
   -9.8692   -1.9311   -0.1880 H   0  0  0  0  0  0  0  0  0  0  0  0
   -4.7773   -1.6700   -2.7265 H   0  0  0  0  0  0  0  0  0  0  0  0
   -4.7200    0.5288   -6.6062 H   0  0  0  0  0  0  0  0  0  0  0  0
   -0.9882    3.4106   -8.5643 H   0  0  0  0  0  0  0  0  0  0  0  0
    1.0469    4.6734  -11.4100 H   0  0  0  0  0  0  0  0  0  0  0  0
   -0.1714    3.1673  -12.7444 H   0  0  0  0  0  0  0  0  0  0  0  0
   -1.9067    1.4362  -13.0387 H   0  0  0  0  0  0  0  0  0  0  0  0
   -4.7740   -0.5614  -12.3208 H   0  0  0  0  0  0  0  0  0  0  0  0
   -3.0740   -1.7666  -13.5360 H   0  0  0  0  0  0  0  0  0  0  0  0
   -1.2441   -1.9888  -14.9522 H   0  0  0  0  0  0  0  0  0  0  0  0
   -0.1244   -2.6673  -16.9088 H   0  0  0  0  0  0  0  0  0  0  0  0
    2.9012   -2.9866  -14.7312 H   0  0  0  0  0  0  0  0  0  0  0  0
    2.9427   -2.5036  -12.3047 H   0  0  0  0  0  0  0  0  0  0  0  0
    2.6440   -1.9354  -10.1170 H   0  0  0  0  0  0  0  0  0  0  0  0
    0.3165   -1.2252   -8.2556 H   0  0  0  0  0  0  0  0  0  0  0  0
    4.2066   -1.5665   -8.4121 H   0  0  0  0  0  0  0  0  0  0  0  0
    5.6151   -3.5398   -7.9971 H   0  0  0  0  0  0  0  0  0  0  0  0
    7.3168   -3.7594   -9.7592 H   0  0  0  0  0  0  0  0  0  0  0  0
   11.1669   -1.1502  -11.4955 H   0  0  0  0  0  0  0  0  0  0  0  0
   11.0530   -0.5670   -9.8253 H   0  0  0  0  0  0  0  0  0  0  0  0
    8.7518    0.3216  -10.3075 H   0  0  0  0  0  0  0  0  0  0  0  0
    8.8625   -0.2953  -11.9596 H   0  0  0  0  0  0  0  0  0  0  0  0
    9.9268    1.0135  -11.4269 H   0  0  0  0  0  0  0  0  0  0  0  0
    7.9304   -0.4034   -6.2200 H   0  0  0  0  0  0  0  0  0  0  0  0
    1.6468   -0.0273   -3.2382 H   0  0  0  0  0  0  0  0  0  0  0  0
   -0.0112   -0.2292   -1.4351 H   0  0  0  0  0  0  0  0  0  0  0  0
   -0.2097   -1.1895    2.7190 H   0  0  0  0  0  0  0  0  0  0  0  0
    0.7100   -0.2837    1.4943 H   0  0  0  0  0  0  0  0  0  0  0  0
    1.5243   -3.0131    2.6299 H   0  0  0  0  0  0  0  0  0  0  0  0
    2.4762   -2.0336    1.5094 H   0  0  0  0  0  0  0  0  0  0  0  0
    2.2062   -1.4676    3.1587 H   0  0  0  0  0  0  0  0  0  0  0  0
    3.3467   -3.7793   -2.0550 H   0  0  0  0  0  0  0  0  0  0  0  0
    5.0683   -1.9445   -1.3358 H   0  0  0  0  0  0  0  0  0  0  0  0
    7.6631   -2.0967   -1.5174 H   0  0  0  0  0  0  0  0  0  0  0  0
  1  2  2  0  0  0  0
  2  3  1  0  0  0  0
  3  4  2  0  0  0  0
  4  5  1  0  0  0  0
  5  6  2  0  0  0  0
  6  7  1  0  0  0  0
  7  8  2  0  0  0  0
  8  9  1  0  0  0  0
  9 10  1  0  0  0  0
 10 11  1  0  0  0  0
  8 12  1  0  0  0  0
 12 13  1  0  0  0  0
 12 14  2  0  0  0  0
  4 15  1  0  0  0  0
 15 16  2  0  0  0  0
 16 17  1  0  0  0  0
 17 18  1  0  0  0  0
 18 19  2  0  0  0  0
 19 20  1  0  0  0  0
 20 21  2  0  0  0  0
 21 22  1  0  0  0  0
 22 23  1  0  0  0  0
 23 24  1  0  0  0  0
 21 25  1  0  0  0  0
 25 26  2  0  0  0  0
 25 27  1  0  0  0  0
 17 28  2  0  0  0  0
 28 29  1  0  0  0  0
 16 30  1  0  0  0  0
 30 31  2  0  0  0  0
 31 32  1  0  0  0  0
 31 33  1  0  0  0  0
 33 34  2  0  0  0  0
 34 35  1  0  0  0  0
 35 36  2  0  0  0  0
 36 37  1  0  0  0  0
 37 38  2  0  0  0  0
 38 39  1  0  0  0  0
 39 40  2  0  0  0  0
 40 41  1  0  0  0  0
 41 42  1  0  0  0  0
 42 43  1  0  0  0  0
 40 44  1  0  0  0  0
 44 45  1  0  0  0  0
 44 46  2  0  0  0  0
 36 47  1  0  0  0  0
 47 48  2  0  0  0  0
 48 49  1  0  0  0  0
 49 50  1  0  0  0  0
 50 51  2  0  0  0  0
 51 52  1  0  0  0  0
 52 53  2  0  0  0  0
 53 54  1  0  0  0  0
 54 55  1  0  0  0  0
 55 56  1  0  0  0  0
 53 57  1  0  0  0  0
 57 58  2  0  0  0  0
 57 59  1  0  0  0  0
 49 60  2  0  0  0  0
 60 61  1  0  0  0  0
 48 62  1  0  0  0  0
 62 63  2  0  0  0  0
 63 64  1  0  0  0  0
 63 65  1  0  0  0  0
 65 66  2  0  0  0  0
 66 67  1  0  0  0  0
 67 68  2  0  0  0  0
 68 69  1  0  0  0  0
 69 70  2  0  0  0  0
 70 71  1  0  0  0  0
 71 72  2  0  0  0  0
 72 73  1  0  0  0  0
 73 74  1  0  0  0  0
 74 75  1  0  0  0  0
 72 76  1  0  0  0  0
 76 77  1  0  0  0  0
 76 78  2  0  0  0  0
 68 79  1  0  0  0  0
 79 80  2  0  0  0  0
 80 81  1  0  0  0  0
 81 82  1  0  0  0  0
 82 83  2  0  0  0  0
 83 84  1  0  0  0  0
 84 85  2  0  0  0  0
 85 86  1  0  0  0  0
 86 87  1  0  0  0  0
 87 88  1  0  0  0  0
 85 89  1  0  0  0  0
 89 90  2  0  0  0  0
 89 91  1  0  0  0  0
 81 92  2  0  0  0  0
 92 93  1  0  0  0  0
 80 94  1  0  0  0  0
 94 95  2  0  0  0  0
 95 96  1  0  0  0  0
 95 97  1  0  0  0  0
 97 98  1  0  0  0  0
 98 99  1  0  0  0  0
 99100  2  0  0  0  0
100101  1  0  0  0  0
101102  1  0  0  0  0
102103  2  0  0  0  0
103104  1  0  0  0  0
104105  2  0  0  0  0
103106  1  0  0  0  0
106107  2  0  0  0  0
 99108  1  0  0  0  0
108109  2  0  0  0  0
109110  1  0  0  0  0
110111  1  0  0  0  0
111112  1  0  0  0  0
112113  2  0  0  0  0
113114  1  0  0  0  0
114115  1  0  0  0  0
115116  2  0  0  0  0
116117  1  0  0  0  0
117118  2  0  0  0  0
116119  1  0  0  0  0
119120  2  0  0  0  0
112121  1  0  0  0  0
121122  2  0  0  0  0
122123  1  0  0  0  0
123124  2  0  0  0  0
124125  1  0  0  0  0
125126  2  0  0  0  0
126127  1  0  0  0  0
127128  2  0  0  0  0
128129  1  0  0  0  0
129130  2  0  0  0  0
130131  1  0  0  0  0
131132  1  0  0  0  0
132133  1  0  0  0  0
130134  1  0  0  0  0
134135  1  0  0  0  0
134136  2  0  0  0  0
126137  1  0  0  0  0
137138  2  0  0  0  0
138139  1  0  0  0  0
139140  1  0  0  0  0
140141  2  0  0  0  0
141142  1  0  0  0  0
142143  2  0  0  0  0
143144  1  0  0  0  0
144145  1  0  0  0  0
145146  1  0  0  0  0
143147  1  0  0  0  0
147148  2  0  0  0  0
147149  1  0  0  0  0
139150  2  0  0  0  0
150151  1  0  0  0  0
138152  1  0  0  0  0
152153  2  0  0  0  0
153154  1  0  0  0  0
 29  1  1  0  0  0  0
 61 33  1  0  0  0  0
 93 65  1  0  0  0  0
101 97  2  0  0  0  0
114110  2  0  0  0  0
151123  1  0  0  0  0
 28  3  1  0  0  0  0
 60 35  1  0  0  0  0
 92 67  1  0  0  0  0
107100  1  0  0  0  0
120113  1  0  0  0  0
150125  1  0  0  0  0
 14  5  1  0  0  0  0
 32 15  1  0  0  0  0
 46 37  1  0  0  0  0
 64 47  1  0  0  0  0
 78 69  1  0  0  0  0
 96 79  1  0  0  0  0
136127  1  0  0  0  0
154137  1  0  0  0  0
 26 18  1  0  0  0  0
 58 50  1  0  0  0  0
 90 82  1  0  0  0  0
148140  1  0  0  0  0
  1155  1  0  0  0  0
  2156  1  0  0  0  0
  6157  1  0  0  0  0
  7158  1  0  0  0  0
 10159  1  0  0  0  0
 10160  1  0  0  0  0
 11161  1  0  0  0  0
 11162  1  0  0  0  0
 11163  1  0  0  0  0
 14164  1  0  0  0  0
 19165  1  0  0  0  0
 20166  1  0  0  0  0
 23167  1  0  0  0  0
 23168  1  0  0  0  0
 24169  1  0  0  0  0
 24170  1  0  0  0  0
 24171  1  0  0  0  0
 26172  1  0  0  0  0
 30173  1  0  0  0  0
 34174  1  0  0  0  0
 38175  1  0  0  0  0
 39176  1  0  0  0  0
 42177  1  0  0  0  0
 42178  1  0  0  0  0
 43179  1  0  0  0  0
 43180  1  0  0  0  0
 43181  1  0  0  0  0
 46182  1  0  0  0  0
 51183  1  0  0  0  0
 52184  1  0  0  0  0
 55185  1  0  0  0  0
 55186  1  0  0  0  0
 56187  1  0  0  0  0
 56188  1  0  0  0  0
 56189  1  0  0  0  0
 58190  1  0  0  0  0
 62191  1  0  0  0  0
 66192  1  0  0  0  0
 70193  1  0  0  0  0
 71194  1  0  0  0  0
 74195  1  0  0  0  0
 74196  1  0  0  0  0
 75197  1  0  0  0  0
 75198  1  0  0  0  0
 75199  1  0  0  0  0
 78200  1  0  0  0  0
 83201  1  0  0  0  0
 84202  1  0  0  0  0
 87203  1  0  0  0  0
 87204  1  0  0  0  0
 88205  1  0  0  0  0
 88206  1  0  0  0  0
 88207  1  0  0  0  0
 90208  1  0  0  0  0
 94209  1  0  0  0  0
102210  1  0  0  0  0
104211  1  0  0  0  0
106212  1  0  0  0  0
107213  1  0  0  0  0
108214  1  0  0  0  0
109215  1  0  0  0  0
115216  1  0  0  0  0
117217  1  0  0  0  0
119218  1  0  0  0  0
120219  1  0  0  0  0
121220  1  0  0  0  0
122221  1  0  0  0  0
124222  1  0  0  0  0
128223  1  0  0  0  0
129224  1  0  0  0  0
132225  1  0  0  0  0
132226  1  0  0  0  0
133227  1  0  0  0  0
133228  1  0  0  0  0
133229  1  0  0  0  0
136230  1  0  0  0  0
141231  1  0  0  0  0
142232  1  0  0  0  0
145233  1  0  0  0  0
145234  1  0  0  0  0
146235  1  0  0  0  0
146236  1  0  0  0  0
146237  1  0  0  0  0
148238  1  0  0  0  0
152239  1  0  0  0  0
153240  1  0  0  0  0
M  END
