222

C          0.91980       -4.11870       10.74560
C          1.70000       -3.95110        9.65880
C          1.09110       -4.43390        8.46420
C          1.59310       -4.39290        7.15630
C          2.86420       -3.75050        6.85000
S          4.16440       -4.60410        6.07680
C          5.17470       -3.19850        6.04540
C          6.56140       -3.25030        5.50620
C          7.59150       -3.31650        6.63540
C          4.53030       -2.14080        6.61390
Cl         5.21060       -0.57160        6.75030
C          3.22130       -2.45060        7.07310
Cl         2.18340       -1.28070        7.77400
C          0.79420       -4.93280        6.15830
C         -0.49410       -5.47020        6.39990
C         -0.99010       -5.52460        7.71300
C         -2.30130       -6.07890        8.01040
S         -3.73880       -5.48310        7.23310
C         -4.76090       -6.56550        8.11520
C         -6.24030       -6.53800        7.95110
C         -6.87090       -5.48490        8.86550
C         -4.01800       -7.33290        8.96110
C         -2.62410       -7.06300        8.90250
Cl        -1.47690       -7.95680        9.80850
Cl        -4.68050       -8.52670       10.00000
C         -0.18070       -5.00280        8.71620
S         -0.59310       -4.88300       10.40300
C         -1.13570       -5.86240        5.19690
C         -0.38800       -5.62520        4.08220
S          1.18320       -4.95440        4.46650
C         -0.76780       -5.73230        2.71190
C         -0.01610       -5.36780        1.63500
C         -0.72540       -5.40550        0.41190
C         -0.29120       -4.95400       -0.84220
C          0.99150       -4.28380       -1.00920
S          2.16820       -4.78660       -2.18080
C          3.21370       -3.45330       -1.81710
C          4.51270       -3.28270       -2.52470
C          5.41890       -4.50080       -2.34910
C          2.66440       -2.67260       -0.84440
Cl         3.37200       -1.22570       -0.24120
C          1.40660       -3.14390       -0.37950
Cl         0.48980       -2.31000        0.81330
C         -1.20580       -5.00890       -1.88300
C         -2.54680       -5.43540       -1.71790
C         -2.97890       -5.89610       -0.45960
C         -4.35890       -6.28540       -0.22050
S         -5.67630       -5.22130       -0.61980
C         -6.85980       -6.31930        0.00880
C         -8.31080       -5.98790       -0.03560
C         -8.77140       -5.66670       -1.45630
C         -6.25330       -7.43960        0.49080
C         -4.83650       -7.42180        0.36890
Cl        -3.85720       -8.74380        0.84700
Cl        -7.09240       -8.76340        1.18980
C         -2.05320       -5.87240        0.57760
S         -2.38620       -6.22290        2.25240
C         -3.31960       -5.19800       -2.88460
C         -2.61830       -4.59270       -3.88610
S         -0.92580       -4.37770       -3.47540
C         -3.10210       -3.86340       -5.01900
C         -4.32020       -3.25180       -5.12850
C         -4.32150       -2.15740       -6.02940
C         -5.30040       -1.15220       -6.18120
C         -6.65930       -1.26740       -5.69000
S         -7.08400       -1.92750       -4.13630
C         -8.77110       -1.63000       -4.37050
C         -9.78610       -2.03170       -3.35750
C        -10.52300       -3.30020       -3.79430
C         -8.98340       -1.06350       -5.59190
Cl       -10.53260       -0.62530       -6.18350
C         -7.79540       -0.85360       -6.33880
Cl        -7.83180       -0.23280       -7.93500
C         -4.86910        0.04230       -6.75700
C         -3.59760        0.19440       -7.35610
C         -2.69840       -0.88440       -7.38730
C         -1.37690       -0.72380       -7.98150
S         -1.18790       -0.50670       -9.69440
C          0.53120       -0.34950       -9.56130
C          1.38830       -0.18670      -10.76770
C          1.72740       -1.54610      -11.38380
C          0.91680       -0.46120       -8.25920
C         -0.16320       -0.66620       -7.35790
Cl         0.05290       -0.75000       -5.65800
Cl         2.54450       -0.34720       -7.72950
C         -3.05720       -2.00480       -6.65840
S         -1.95660       -3.27160       -6.20160
C         -3.25170        1.55090       -7.55900
C         -4.16570        2.42360       -7.03520
S         -5.62670        1.59770       -6.52310
C         -3.84120        3.71860       -6.52120
C         -2.62620        4.33850       -6.62460
C         -2.33250        5.18950       -5.53210
C         -1.05440        5.67170       -5.17340
C          0.00630        5.71680       -6.15650
S          1.61690        5.14790       -5.82860
C          2.15680        5.51330       -7.43070
C          3.57270        5.29200       -7.83260
C          4.45490        6.45790       -7.37930
C          1.14330        6.05950       -8.16200
Cl         1.30510        6.56650       -9.79400
C         -0.07850        6.16840       -7.44880
Cl        -1.48330        6.87520       -8.13560
C         -0.86520        5.95400       -3.82670
C         -1.92290        5.95250       -2.88160
C         -3.24400        5.69920       -3.29890
C         -4.38290        5.73610       -2.40220
S         -4.38370        4.98270       -0.83100
C         -6.03580        5.40190       -0.52840
C         -6.72590        4.98150        0.72140
C         -7.33370        3.58520        0.56660
C         -6.54680        6.07880       -1.59360
C         -5.61860        6.26820       -2.65360
Cl        -6.01380        7.15160       -4.06690
Cl        -8.15600        6.66780       -1.66530
C         -3.39910        5.24830       -4.60630
S         -4.78330        4.36190       -5.18610
C         -1.44170        6.04600       -1.55550
C         -0.07660        6.03840       -1.46530
S          0.68230        6.14940       -3.04440
C          0.66540        5.64980       -0.31540
S          2.39730        5.84160       -0.12020
C          2.49340        4.70710        1.20140
C          1.22600        4.23930        1.49420
C          0.20820        4.78670        0.66100
N         -0.94770        4.17020        1.05870
C         -0.58880        3.31940        2.07400
N          0.67310        3.33270        2.36190
C          3.70370        4.24250        1.78840
C          3.86970        2.98640        2.29540
C          5.16360        2.75570        2.81950
C          5.67960        1.56710        3.36560
C          4.87370        0.35930        3.41800
S          5.44670       -1.10410        2.67130
C          3.98650       -1.95500        3.02830
C          3.76620       -3.36720        2.60880
C          4.90320       -3.91990        1.76330
C          3.12350       -1.14280        3.70280
Cl         1.57040       -1.64140        4.22970
C          3.61870        0.16910        3.92690
Cl         2.74290        1.34400        4.81860
C          7.00670        1.58980        3.77500
C          7.82330        2.74150        3.68720
C          7.30470        3.92970        3.14790
C          8.10620        5.14110        3.07560
S          8.32380        6.00420        1.58320
C          9.30010        7.21760        2.33830
C          9.81540        8.38070        1.56510
C          8.73630        9.45620        1.41860
C          9.43050        6.96080        3.67030
C          8.76010        5.78090        4.09100
Cl         8.72250        5.27170        5.73030
Cl        10.31810        7.95090        4.75550
C          5.99140        3.89910        2.69890
S          5.14860        5.21940        1.93370
C          9.14590        2.48520        4.15410
C          9.30990        1.22120        4.59370
S          7.88290        0.25310        4.46570
H          1.13440       -3.84370       11.75990
H          2.67660       -3.50410        9.68450
H          6.66300       -4.12700        4.86520
H          6.74490       -2.35440        4.90940
H          7.43700       -4.20630        7.24100
H          7.50540       -2.44070        7.27230
H          8.59450       -3.34580        6.21910
H         -6.48590       -6.31230        6.91190
H         -6.63830       -7.52340        8.20020
H         -6.64430       -5.70560        9.90550
H         -6.48290       -4.49740        8.62720
H         -7.95000       -5.47700        8.73780
H         -2.12630       -6.27770        5.15150
H          1.00940       -5.05730        1.72020
H          5.00280       -2.39010       -2.13240
H          4.32350       -3.12850       -3.59040
H          6.35480       -4.34830       -2.87960
H          5.63850       -4.66390       -1.29710
H          4.93420       -5.39010       -2.74510
H         -8.86910       -6.83840        0.35860
H         -8.50400       -5.12480        0.60760
H         -8.60190       -6.51830       -2.11050
H         -9.83200       -5.43150       -1.46000
H         -8.21950       -4.81370       -1.84530
H         -4.36530       -5.42980       -2.96390
H         -5.14340       -3.49410       -4.48330
H         -9.29180       -2.20040       -2.39990
H        -10.50810       -1.22020       -3.24020
H        -11.03700       -3.13010       -4.73610
H        -11.25760       -3.58040       -3.04440
H         -9.82270       -4.12130       -3.92400
H          0.86610        0.42590      -11.50450
H          2.30900        0.32260      -10.47650
H          2.35670       -1.41240      -12.25930
H          0.81810       -2.06240      -11.68230
H          2.25760       -2.16400      -10.66360
H         -2.28910        1.85210       -7.92900
H         -1.90470        4.09250       -7.38140
H          3.61870        5.19720       -8.91900
H          3.93640        4.36640       -7.38310
H          4.41740        6.55970       -6.29740
H          5.48480        6.28500       -7.67920
H          4.11220        7.38660       -7.82850
H         -6.01390        4.98020        1.54870
H         -7.51670        5.70110        0.94110
H         -8.05750        3.57850       -0.24420
H         -7.83570        3.29360        1.48510
H         -6.55780        2.85600        0.34510
H         -2.07910        6.06860       -0.69220
H         -1.86300        4.27300        0.65340
H         -1.30820        2.70260        2.57700
H          3.08380        2.25620        2.26410
H          2.82750       -3.41160        2.05080
H          3.63410       -3.98630        3.50020
H          4.68620       -4.94450        1.47180
H          5.03530       -3.31990        0.86690
H          5.83430       -3.90600        2.32450
H         10.13140        8.04730        0.57500
H         10.67900        8.79490        2.08840
H          8.42170        9.80960        2.39720
H          7.87010        9.05190        0.90030
H          9.12280       10.29870        0.85140
H          9.93010        3.21930        4.14420
H         10.19780        0.77280        4.99440
