
  xtb     03082202003D
 energy: -329.578611438610 gnorm: 0.000501713544 xtb: 6.4.1 (unknown)
188205  0     0  0            999 V2000
    3.2471   -5.4949   11.0287 C   0  0  0  0  0  0  0  0  0  0  0  0
    3.5571   -4.4245   10.2702 C   0  0  0  0  0  0  0  0  0  0  0  0
    3.2233   -4.6065    8.8957 C   0  0  0  0  0  0  0  0  0  0  0  0
    3.4074   -3.7152    7.8332 C   0  0  0  0  0  0  0  0  0  0  0  0
    4.0423   -2.3962    7.9652 C   0  0  0  0  0  0  0  0  0  0  0  0
    5.3330   -2.2517    8.4678 C   0  0  0  0  0  0  0  0  0  0  0  0
    5.9644   -1.0261    8.4271 C   0  0  0  0  0  0  0  0  0  0  0  0
    5.3303    0.1020    7.9091 C   0  0  0  0  0  0  0  0  0  0  0  0
    6.2511    1.6101    7.8569 S   0  0  0  0  0  0  0  0  0  0  0  0
    5.7470    2.3860    6.2743 C   0  0  0  0  0  0  0  0  0  0  0  0
    5.9742    1.4786    5.0820 C   0  0  0  0  0  0  0  0  0  0  0  0
    4.0107   -0.0421    7.4913 C   0  0  0  0  0  0  0  0  0  0  0  0
    3.2994    1.0207    7.0565 F   0  0  0  0  0  0  0  0  0  0  0  0
    3.3792   -1.2683    7.4934 C   0  0  0  0  0  0  0  0  0  0  0  0
    2.9838   -4.1418    6.5844 C   0  0  0  0  0  0  0  0  0  0  0  0
    2.4049   -5.4097    6.3382 C   0  0  0  0  0  0  0  0  0  0  0  0
    2.2171   -6.3022    7.4057 C   0  0  0  0  0  0  0  0  0  0  0  0
    1.6358   -7.6339    7.1973 C   0  0  0  0  0  0  0  0  0  0  0  0
    2.1419   -8.4908    6.2242 C   0  0  0  0  0  0  0  0  0  0  0  0
    1.6051   -9.7488    6.0293 C   0  0  0  0  0  0  0  0  0  0  0  0
    0.5403  -10.1962    6.8031 C   0  0  0  0  0  0  0  0  0  0  0  0
   -0.2554  -11.7600    6.6419 S   0  0  0  0  0  0  0  0  0  0  0  0
    0.9224  -12.7628    5.6711 C   0  0  0  0  0  0  0  0  0  0  0  0
    2.1748  -13.1006    6.4572 C   0  0  0  0  0  0  0  0  0  0  0  0
    0.0378   -9.3227    7.7695 C   0  0  0  0  0  0  0  0  0  0  0  0
    0.5664   -8.0690    7.9771 C   0  0  0  0  0  0  0  0  0  0  0  0
   -1.0058   -9.7157    8.5261 F   0  0  0  0  0  0  0  0  0  0  0  0
    2.6227   -5.8680    8.6616 C   0  0  0  0  0  0  0  0  0  0  0  0
    2.5235   -6.7917   10.1394 S   0  0  0  0  0  0  0  0  0  0  0  0
    2.0735   -5.5780    4.9658 C   0  0  0  0  0  0  0  0  0  0  0  0
    2.4115   -4.5099    4.1915 C   0  0  0  0  0  0  0  0  0  0  0  0
    3.1478   -3.2158    5.1199 S   0  0  0  0  0  0  0  0  0  0  0  0
    2.2571   -4.3087    2.7884 C   0  0  0  0  0  0  0  0  0  0  0  0
    2.6114   -3.1834    2.1076 C   0  0  0  0  0  0  0  0  0  0  0  0
    2.3600   -3.2548    0.7176 C   0  0  0  0  0  0  0  0  0  0  0  0
    2.6208   -2.2708   -0.2465 C   0  0  0  0  0  0  0  0  0  0  0  0
    3.2288   -0.9839    0.1124 C   0  0  0  0  0  0  0  0  0  0  0  0
    4.4148   -0.9142    0.8414 C   0  0  0  0  0  0  0  0  0  0  0  0
    4.9632    0.3060    1.1720 C   0  0  0  0  0  0  0  0  0  0  0  0
    4.3471    1.5028    0.8071 C   0  0  0  0  0  0  0  0  0  0  0  0
    5.1186    3.0047    1.3193 S   0  0  0  0  0  0  0  0  0  0  0  0
    4.7296    4.1718   -0.0446 C   0  0  0  0  0  0  0  0  0  0  0  0
    5.7954    5.2477   -0.0961 C   0  0  0  0  0  0  0  0  0  0  0  0
    3.1489    1.4174    0.1037 C   0  0  0  0  0  0  0  0  0  0  0  0
    2.4525    2.5263   -0.2271 F   0  0  0  0  0  0  0  0  0  0  0  0
    2.6051    0.2024   -0.2583 C   0  0  0  0  0  0  0  0  0  0  0  0
    2.2422   -2.5665   -1.5443 C   0  0  0  0  0  0  0  0  0  0  0  0
    1.6236   -3.7832   -1.9215 C   0  0  0  0  0  0  0  0  0  0  0  0
    1.3882   -4.7802   -0.9572 C   0  0  0  0  0  0  0  0  0  0  0  0
    0.8000   -6.0729   -1.3253 C   0  0  0  0  0  0  0  0  0  0  0  0
   -0.2682   -6.6093   -0.6134 C   0  0  0  0  0  0  0  0  0  0  0  0
   -0.8167   -7.8303   -0.9555 C   0  0  0  0  0  0  0  0  0  0  0  0
   -0.3144   -8.5625   -2.0250 C   0  0  0  0  0  0  0  0  0  0  0  0
   -0.8933  -10.1374   -2.5592 S   0  0  0  0  0  0  0  0  0  0  0  0
   -2.4545  -10.3828   -1.6444 C   0  0  0  0  0  0  0  0  0  0  0  0
   -3.5757   -9.5057   -2.1686 C   0  0  0  0  0  0  0  0  0  0  0  0
    0.7648   -8.0166   -2.7242 C   0  0  0  0  0  0  0  0  0  0  0  0
    1.3180   -6.8005   -2.3962 C   0  0  0  0  0  0  0  0  0  0  0  0
    1.2892   -8.7054   -3.7581 F   0  0  0  0  0  0  0  0  0  0  0  0
    1.7557   -4.4819    0.3473 C   0  0  0  0  0  0  0  0  0  0  0  0
    1.5727   -5.5312    1.7350 S   0  0  0  0  0  0  0  0  0  0  0  0
    1.2789   -3.7848   -3.2974 C   0  0  0  0  0  0  0  0  0  0  0  0
    1.6371   -2.6440   -3.9557 C   0  0  0  0  0  0  0  0  0  0  0  0
    2.4665   -1.5085   -2.9075 S   0  0  0  0  0  0  0  0  0  0  0  0
    1.4495   -2.3567   -5.3439 C   0  0  0  0  0  0  0  0  0  0  0  0
    1.0774   -3.6566   -6.4440 S   0  0  0  0  0  0  0  0  0  0  0  0
    1.1460   -2.6009   -7.7960 C   0  0  0  0  0  0  0  0  0  0  0  0
    1.4228   -1.3230   -7.4394 C   0  0  0  0  0  0  0  0  0  0  0  0
    1.5869   -1.1697   -6.0399 C   0  0  0  0  0  0  0  0  0  0  0  0
    1.8697    0.0574   -5.5204 O   0  0  0  0  0  0  0  0  0  0  0  0
    1.1629    0.5144   -4.4535 C   0  0  0  0  0  0  0  0  0  0  0  0
    1.5674    1.5934   -3.7687 C   0  0  0  0  0  0  0  0  0  0  0  0
    2.7889    2.2953   -4.0349 C   0  0  0  0  0  0  0  0  0  0  0  0
    3.9661    1.6441   -5.1380 S   0  0  0  0  0  0  0  0  0  0  0  0
    5.0540    2.9330   -4.8203 C   0  0  0  0  0  0  0  0  0  0  0  0
    4.5459    3.8322   -3.9412 C   0  0  0  0  0  0  0  0  0  0  0  0
    3.2468    3.4841   -3.4974 C   0  0  0  0  0  0  0  0  0  0  0  0
    2.6295    4.2742   -2.5622 O   0  0  0  0  0  0  0  0  0  0  0  0
    1.3251    4.6025   -2.6504 C   0  0  0  0  0  0  0  0  0  0  0  0
    0.5036    4.4397   -3.6943 C   0  0  0  0  0  0  0  0  0  0  0  0
   -0.8914    4.7583   -3.6720 C   0  0  0  0  0  0  0  0  0  0  0  0
   -1.8149    4.3535   -4.5871 C   0  0  0  0  0  0  0  0  0  0  0  0
   -3.1427    4.7518   -4.2834 C   0  0  0  0  0  0  0  0  0  0  0  0
   -4.3126    4.4847   -5.0113 C   0  0  0  0  0  0  0  0  0  0  0  0
   -4.2929    3.5876   -6.1724 C   0  0  0  0  0  0  0  0  0  0  0  0
   -3.6994    2.3319   -6.0718 C   0  0  0  0  0  0  0  0  0  0  0  0
   -3.6771    1.4595   -7.1421 C   0  0  0  0  0  0  0  0  0  0  0  0
   -4.2392    1.8182   -8.3615 C   0  0  0  0  0  0  0  0  0  0  0  0
   -4.2810    0.8087   -9.8065 S   0  0  0  0  0  0  0  0  0  0  0  0
   -3.1422   -0.5673   -9.4264 C   0  0  0  0  0  0  0  0  0  0  0  0
   -1.6874   -0.1358   -9.4189 C   0  0  0  0  0  0  0  0  0  0  0  0
   -4.8448    3.0734   -8.4439 C   0  0  0  0  0  0  0  0  0  0  0  0
   -5.4100    3.4474   -9.6096 F   0  0  0  0  0  0  0  0  0  0  0  0
   -4.8832    3.9479   -7.3812 C   0  0  0  0  0  0  0  0  0  0  0  0
   -5.4847    5.0596   -4.5433 C   0  0  0  0  0  0  0  0  0  0  0  0
   -5.5397    5.8552   -3.3720 C   0  0  0  0  0  0  0  0  0  0  0  0
   -4.3726    6.0990   -2.6269 C   0  0  0  0  0  0  0  0  0  0  0  0
   -4.3941    6.9223   -1.4123 C   0  0  0  0  0  0  0  0  0  0  0  0
   -3.8240    6.4662   -0.2279 C   0  0  0  0  0  0  0  0  0  0  0  0
   -3.8302    7.2415    0.9154 C   0  0  0  0  0  0  0  0  0  0  0  0
   -4.3953    8.5112    0.9111 C   0  0  0  0  0  0  0  0  0  0  0  0
   -4.4812    9.5981    2.2961 S   0  0  0  0  0  0  0  0  0  0  0  0
   -3.2741    8.9084    3.4801 C   0  0  0  0  0  0  0  0  0  0  0  0
   -1.8422    9.0767    3.0087 C   0  0  0  0  0  0  0  0  0  0  0  0
   -4.9682    8.9543   -0.2823 C   0  0  0  0  0  0  0  0  0  0  0  0
   -4.9771    8.1882   -1.4257 C   0  0  0  0  0  0  0  0  0  0  0  0
   -5.5305   10.1798   -0.3229 F   0  0  0  0  0  0  0  0  0  0  0  0
   -3.2020    5.5279   -3.1009 C   0  0  0  0  0  0  0  0  0  0  0  0
   -1.6193    5.6889   -2.3756 S   0  0  0  0  0  0  0  0  0  0  0  0
   -6.8662    6.2572   -3.0738 C   0  0  0  0  0  0  0  0  0  0  0  0
   -7.7865    5.8056   -3.9725 C   0  0  0  0  0  0  0  0  0  0  0  0
   -7.0659    4.8521   -5.2519 S   0  0  0  0  0  0  0  0  0  0  0  0
   -9.1955    6.0147   -3.9600 C   0  0  0  0  0  0  0  0  0  0  0  0
   -9.9898    6.9404   -2.7240 S   0  0  0  0  0  0  0  0  0  0  0  0
  -11.5224    6.6713   -3.4534 C   0  0  0  0  0  0  0  0  0  0  0  0
  -11.4419    5.9231   -4.5827 C   0  0  0  0  0  0  0  0  0  0  0  0
  -10.1113    5.5411   -4.8783 C   0  0  0  0  0  0  0  0  0  0  0  0
   -9.6873    4.8640   -5.9842 O   0  0  0  0  0  0  0  0  0  0  0  0
  -10.3304    3.7369   -6.3915 C   0  0  0  0  0  0  0  0  0  0  0  0
  -11.2155    3.0187   -5.7214 C   0  0  0  0  0  0  0  0  0  0  0  0
    3.3911   -5.6193   12.0842 H   0  0  0  0  0  0  0  0  0  0  0  0
    4.0017   -3.5233   10.6521 H   0  0  0  0  0  0  0  0  0  0  0  0
    5.8581   -3.1154    8.8465 H   0  0  0  0  0  0  0  0  0  0  0  0
    6.9783   -0.9225    8.7813 H   0  0  0  0  0  0  0  0  0  0  0  0
    4.7100    2.7045    6.3510 H   0  0  0  0  0  0  0  0  0  0  0  0
    6.3857    3.2677    6.2217 H   0  0  0  0  0  0  0  0  0  0  0  0
    5.7432    2.0193    4.1657 H   0  0  0  0  0  0  0  0  0  0  0  0
    5.3338    0.5995    5.1314 H   0  0  0  0  0  0  0  0  0  0  0  0
    7.0108    1.1500    5.0442 H   0  0  0  0  0  0  0  0  0  0  0  0
    2.3616   -1.3274    7.1395 H   0  0  0  0  0  0  0  0  0  0  0  0
    2.9828   -8.1778    5.6238 H   0  0  0  0  0  0  0  0  0  0  0  0
    2.0237  -10.3778    5.2605 H   0  0  0  0  0  0  0  0  0  0  0  0
    1.1411  -12.2437    4.7388 H   0  0  0  0  0  0  0  0  0  0  0  0
    0.3552  -13.6644    5.4397 H   0  0  0  0  0  0  0  0  0  0  0  0
    1.9128  -13.6356    7.3669 H   0  0  0  0  0  0  0  0  0  0  0  0
    2.7182  -12.1997    6.7346 H   0  0  0  0  0  0  0  0  0  0  0  0
    2.8289  -13.7312    5.8580 H   0  0  0  0  0  0  0  0  0  0  0  0
    0.1303   -7.4348    8.7325 H   0  0  0  0  0  0  0  0  0  0  0  0
    1.5909   -6.4532    4.5687 H   0  0  0  0  0  0  0  0  0  0  0  0
    3.0289   -2.3187    2.5915 H   0  0  0  0  0  0  0  0  0  0  0  0
    4.9229   -1.8234    1.1240 H   0  0  0  0  0  0  0  0  0  0  0  0
    5.8879    0.3563    1.7256 H   0  0  0  0  0  0  0  0  0  0  0  0
    3.7458    4.6005    0.1377 H   0  0  0  0  0  0  0  0  0  0  0  0
    4.7115    3.5918   -0.9653 H   0  0  0  0  0  0  0  0  0  0  0  0
    6.7736    4.8107   -0.2853 H   0  0  0  0  0  0  0  0  0  0  0  0
    5.5632    5.9499   -0.8938 H   0  0  0  0  0  0  0  0  0  0  0  0
    5.8369    5.7924    0.8446 H   0  0  0  0  0  0  0  0  0  0  0  0
    1.6701    0.1961   -0.7966 H   0  0  0  0  0  0  0  0  0  0  0  0
   -0.6921   -6.0573    0.2114 H   0  0  0  0  0  0  0  0  0  0  0  0
   -1.6404   -8.2080   -0.3724 H   0  0  0  0  0  0  0  0  0  0  0  0
   -2.2643  -10.2302   -0.5829 H   0  0  0  0  0  0  0  0  0  0  0  0
   -2.6804  -11.4366   -1.8073 H   0  0  0  0  0  0  0  0  0  0  0  0
   -4.4924   -9.7095   -1.6184 H   0  0  0  0  0  0  0  0  0  0  0  0
   -3.7497   -9.7106   -3.2222 H   0  0  0  0  0  0  0  0  0  0  0  0
   -3.3325   -8.4508   -2.0609 H   0  0  0  0  0  0  0  0  0  0  0  0
    2.1636   -6.4383   -2.9597 H   0  0  0  0  0  0  0  0  0  0  0  0
    0.7536   -4.5891   -3.7809 H   0  0  0  0  0  0  0  0  0  0  0  0
    0.9721   -2.9949   -8.7772 H   0  0  0  0  0  0  0  0  0  0  0  0
    1.5136   -0.4985   -8.1220 H   0  0  0  0  0  0  0  0  0  0  0  0
    0.2448   -0.0079   -4.2145 H   0  0  0  0  0  0  0  0  0  0  0  0
    0.9517    1.9537   -2.9609 H   0  0  0  0  0  0  0  0  0  0  0  0
    6.0057    2.9571   -5.3114 H   0  0  0  0  0  0  0  0  0  0  0  0
    5.0508    4.7213   -3.6103 H   0  0  0  0  0  0  0  0  0  0  0  0
    0.9921    5.0620   -1.7289 H   0  0  0  0  0  0  0  0  0  0  0  0
    0.8590    3.9894   -4.6105 H   0  0  0  0  0  0  0  0  0  0  0  0
   -1.5551    3.7876   -5.4638 H   0  0  0  0  0  0  0  0  0  0  0  0
   -3.2688    2.0234   -5.1308 H   0  0  0  0  0  0  0  0  0  0  0  0
   -3.2244    0.4899   -7.0120 H   0  0  0  0  0  0  0  0  0  0  0  0
   -3.4467   -1.0229   -8.4848 H   0  0  0  0  0  0  0  0  0  0  0  0
   -3.3286   -1.2795  -10.2301 H   0  0  0  0  0  0  0  0  0  0  0  0
   -1.0483   -0.9920   -9.2093 H   0  0  0  0  0  0  0  0  0  0  0  0
   -1.4149    0.2765  -10.3874 H   0  0  0  0  0  0  0  0  0  0  0  0
   -1.5083    0.6244   -8.6615 H   0  0  0  0  0  0  0  0  0  0  0  0
   -5.3547    4.9091   -7.5086 H   0  0  0  0  0  0  0  0  0  0  0  0
   -3.3861    5.4806   -0.1922 H   0  0  0  0  0  0  0  0  0  0  0  0
   -3.3947    6.8405    1.8161 H   0  0  0  0  0  0  0  0  0  0  0  0
   -3.5297    7.8677    3.6752 H   0  0  0  0  0  0  0  0  0  0  0  0
   -3.4538    9.4844    4.3879 H   0  0  0  0  0  0  0  0  0  0  0  0
   -1.6736    8.5482    2.0728 H   0  0  0  0  0  0  0  0  0  0  0  0
   -1.1575    8.6845    3.7583 H   0  0  0  0  0  0  0  0  0  0  0  0
   -1.6211   10.1298    2.8521 H   0  0  0  0  0  0  0  0  0  0  0  0
   -5.4125    8.5919   -2.3263 H   0  0  0  0  0  0  0  0  0  0  0  0
   -7.1380    6.8425   -2.2137 H   0  0  0  0  0  0  0  0  0  0  0  0
  -12.3977    7.0950   -3.0038 H   0  0  0  0  0  0  0  0  0  0  0  0
  -12.2843    5.6622   -5.1970 H   0  0  0  0  0  0  0  0  0  0  0  0
   -9.9786    3.4629   -7.3765 H   0  0  0  0  0  0  0  0  0  0  0  0
  -11.6321    2.1318   -6.1588 H   0  0  0  0  0  0  0  0  0  0  0  0
  -11.5404    3.2757   -4.7280 H   0  0  0  0  0  0  0  0  0  0  0  0
  1  2  2  0  0  0  0
  2  3  1  0  0  0  0
  3  4  2  0  0  0  0
  4  5  1  0  0  0  0
  5  6  2  0  0  0  0
  6  7  1  0  0  0  0
  7  8  2  0  0  0  0
  8  9  1  0  0  0  0
  9 10  1  0  0  0  0
 10 11  1  0  0  0  0
  8 12  1  0  0  0  0
 12 13  1  0  0  0  0
 12 14  2  0  0  0  0
  4 15  1  0  0  0  0
 15 16  2  0  0  0  0
 16 17  1  0  0  0  0
 17 18  1  0  0  0  0
 18 19  2  0  0  0  0
 19 20  1  0  0  0  0
 20 21  2  0  0  0  0
 21 22  1  0  0  0  0
 22 23  1  0  0  0  0
 23 24  1  0  0  0  0
 21 25  1  0  0  0  0
 25 26  2  0  0  0  0
 25 27  1  0  0  0  0
 17 28  2  0  0  0  0
 28 29  1  0  0  0  0
 16 30  1  0  0  0  0
 30 31  2  0  0  0  0
 31 32  1  0  0  0  0
 31 33  1  0  0  0  0
 33 34  2  0  0  0  0
 34 35  1  0  0  0  0
 35 36  2  0  0  0  0
 36 37  1  0  0  0  0
 37 38  2  0  0  0  0
 38 39  1  0  0  0  0
 39 40  2  0  0  0  0
 40 41  1  0  0  0  0
 41 42  1  0  0  0  0
 42 43  1  0  0  0  0
 40 44  1  0  0  0  0
 44 45  1  0  0  0  0
 44 46  2  0  0  0  0
 36 47  1  0  0  0  0
 47 48  2  0  0  0  0
 48 49  1  0  0  0  0
 49 50  1  0  0  0  0
 50 51  2  0  0  0  0
 51 52  1  0  0  0  0
 52 53  2  0  0  0  0
 53 54  1  0  0  0  0
 54 55  1  0  0  0  0
 55 56  1  0  0  0  0
 53 57  1  0  0  0  0
 57 58  2  0  0  0  0
 57 59  1  0  0  0  0
 49 60  2  0  0  0  0
 60 61  1  0  0  0  0
 48 62  1  0  0  0  0
 62 63  2  0  0  0  0
 63 64  1  0  0  0  0
 63 65  1  0  0  0  0
 65 66  1  0  0  0  0
 66 67  1  0  0  0  0
 67 68  2  0  0  0  0
 68 69  1  0  0  0  0
 69 70  1  0  0  0  0
 70 71  1  0  0  0  0
 71 72  2  0  0  0  0
 72 73  1  0  0  0  0
 73 74  1  0  0  0  0
 74 75  1  0  0  0  0
 75 76  2  0  0  0  0
 76 77  1  0  0  0  0
 77 78  1  0  0  0  0
 78 79  1  0  0  0  0
 79 80  2  0  0  0  0
 80 81  1  0  0  0  0
 81 82  2  0  0  0  0
 82 83  1  0  0  0  0
 83 84  2  0  0  0  0
 84 85  1  0  0  0  0
 85 86  2  0  0  0  0
 86 87  1  0  0  0  0
 87 88  2  0  0  0  0
 88 89  1  0  0  0  0
 89 90  1  0  0  0  0
 90 91  1  0  0  0  0
 88 92  1  0  0  0  0
 92 93  1  0  0  0  0
 92 94  2  0  0  0  0
 84 95  1  0  0  0  0
 95 96  2  0  0  0  0
 96 97  1  0  0  0  0
 97 98  1  0  0  0  0
 98 99  2  0  0  0  0
 99100  1  0  0  0  0
100101  2  0  0  0  0
101102  1  0  0  0  0
102103  1  0  0  0  0
103104  1  0  0  0  0
101105  1  0  0  0  0
105106  2  0  0  0  0
105107  1  0  0  0  0
 97108  2  0  0  0  0
108109  1  0  0  0  0
 96110  1  0  0  0  0
110111  2  0  0  0  0
111112  1  0  0  0  0
111113  1  0  0  0  0
113114  1  0  0  0  0
114115  1  0  0  0  0
115116  2  0  0  0  0
116117  1  0  0  0  0
117118  1  0  0  0  0
118119  1  0  0  0  0
119120  2  0  0  0  0
 29  1  1  0  0  0  0
 61 33  1  0  0  0  0
 69 65  2  0  0  0  0
 77 73  2  0  0  0  0
109 81  1  0  0  0  0
117113  2  0  0  0  0
 28  3  1  0  0  0  0
 60 35  1  0  0  0  0
108 83  1  0  0  0  0
 14  5  1  0  0  0  0
 32 15  1  0  0  0  0
 46 37  1  0  0  0  0
 64 47  1  0  0  0  0
 94 85  1  0  0  0  0
112 95  1  0  0  0  0
 26 18  1  0  0  0  0
 58 50  1  0  0  0  0
106 98  1  0  0  0  0
  1121  1  0  0  0  0
  2122  1  0  0  0  0
  6123  1  0  0  0  0
  7124  1  0  0  0  0
 10125  1  0  0  0  0
 10126  1  0  0  0  0
 11127  1  0  0  0  0
 11128  1  0  0  0  0
 11129  1  0  0  0  0
 14130  1  0  0  0  0
 19131  1  0  0  0  0
 20132  1  0  0  0  0
 23133  1  0  0  0  0
 23134  1  0  0  0  0
 24135  1  0  0  0  0
 24136  1  0  0  0  0
 24137  1  0  0  0  0
 26138  1  0  0  0  0
 30139  1  0  0  0  0
 34140  1  0  0  0  0
 38141  1  0  0  0  0
 39142  1  0  0  0  0
 42143  1  0  0  0  0
 42144  1  0  0  0  0
 43145  1  0  0  0  0
 43146  1  0  0  0  0
 43147  1  0  0  0  0
 46148  1  0  0  0  0
 51149  1  0  0  0  0
 52150  1  0  0  0  0
 55151  1  0  0  0  0
 55152  1  0  0  0  0
 56153  1  0  0  0  0
 56154  1  0  0  0  0
 56155  1  0  0  0  0
 58156  1  0  0  0  0
 62157  1  0  0  0  0
 67158  1  0  0  0  0
 68159  1  0  0  0  0
 71160  1  0  0  0  0
 72161  1  0  0  0  0
 75162  1  0  0  0  0
 76163  1  0  0  0  0
 79164  1  0  0  0  0
 80165  1  0  0  0  0
 82166  1  0  0  0  0
 86167  1  0  0  0  0
 87168  1  0  0  0  0
 90169  1  0  0  0  0
 90170  1  0  0  0  0
 91171  1  0  0  0  0
 91172  1  0  0  0  0
 91173  1  0  0  0  0
 94174  1  0  0  0  0
 99175  1  0  0  0  0
100176  1  0  0  0  0
103177  1  0  0  0  0
103178  1  0  0  0  0
104179  1  0  0  0  0
104180  1  0  0  0  0
104181  1  0  0  0  0
106182  1  0  0  0  0
110183  1  0  0  0  0
115184  1  0  0  0  0
116185  1  0  0  0  0
119186  1  0  0  0  0
120187  1  0  0  0  0
120188  1  0  0  0  0
M  END
