264

C         -3.78670        3.12450        9.70360
C         -2.73190        2.67950        8.99200
C         -3.09490        2.18250        7.70350
C         -2.25690        1.68990        6.69000
C         -0.80010        1.61040        6.85590
C         -0.20610        1.07020        7.99710
C          1.16390        1.05250        8.13330
C          2.00840        1.55900        7.14340
S          3.73280        1.53800        7.50580
C          4.58000        1.67200        5.88400
C          6.02730        1.25340        6.05510
C          1.40320        2.08100        6.00500
F          2.13430        2.62050        5.00300
C          0.03190        2.10510        5.85680
C         -2.87290        1.32220        5.50000
C         -4.26520        1.45050        5.27990
C         -5.09650        1.98170        6.27710
C         -6.51580        2.23920        6.00650
C         -6.87820        2.97390        4.87950
C         -8.20070        3.25230        4.59810
C         -9.21380        2.79900        5.43610
S        -10.93250        3.07540        5.17030
C        -10.94470        4.47160        3.98060
C        -12.37240        4.95570        3.81500
C         -8.83800        2.05630        6.55660
C         -7.52130        1.78270        6.85390
F         -9.79430        1.58760        7.38290
C         -4.48900        2.30340        7.48070
S         -5.29600        2.98870        8.86860
C         -4.65340        0.95370        4.01160
C         -3.61430        0.46380        3.27880
S         -2.08740        0.60220        4.11910
C         -3.66580       -0.05320        1.94850
C         -4.71310        0.02240        1.07760
C         -4.41730       -0.48280       -0.21360
C         -5.21930       -0.44020       -1.36860
C         -6.57180        0.12790       -1.33070
C         -7.65160       -0.58000       -1.85670
C         -8.93560       -0.09210       -1.74150
C         -9.19520        1.12080       -1.10780
S        -10.87970        1.65130       -0.99570
C        -11.00870        2.25250        0.73130
C        -10.62400        1.18610        1.73730
C         -8.10250        1.84610       -0.64330
F         -8.27230        3.05700       -0.06290
C         -6.81320        1.36490       -0.73970
C         -4.66240       -0.95340       -2.53080
C         -3.37610       -1.54720       -2.57160
C         -2.56740       -1.57750       -1.42380
C         -1.18620       -2.07870       -1.43980
C         -0.28010       -1.66340       -2.41550
C          1.02760       -2.10510       -2.40090
C          1.47220       -2.97450       -1.41370
S          3.15420       -3.55050       -1.36760
C          3.26070       -4.36710       -2.99770
C          2.33830       -5.56550       -3.08560
C          0.57080       -3.36290       -0.42900
C         -0.74150       -2.93510       -0.43610
F          0.97350       -4.18380        0.55700
C         -3.10980       -1.02730       -0.27230
S         -2.26710       -0.82480        1.24010
C         -3.03760       -1.96380       -3.88240
C         -3.95730       -1.61490       -4.82710
S         -5.36180       -0.84540       -4.13090
C         -3.62750       -1.66000       -6.22830
C         -2.88660       -2.62620       -6.83280
C         -2.16880       -2.16340       -7.96670
C         -1.12020       -2.85170       -8.59590
C         -0.87590       -4.27520       -8.31620
C          0.29160       -4.67750       -7.67560
C          0.53570       -6.00720       -7.39700
C         -0.38090       -6.98780       -7.75960
S         -0.19350       -8.71230       -7.46600
C          1.51720       -8.88710       -6.84950
C          2.55460       -8.72960       -7.94380
C         -1.55790       -6.56700       -8.38360
F         -2.47970       -7.48750       -8.73280
C         -1.81830       -5.24190       -8.65530
C         -0.21930       -2.06850       -9.29170
C         -0.37630       -0.67150       -9.46730
C         -1.55710       -0.03040       -9.03730
C         -1.77970        1.37610       -9.38090
C         -1.53720        1.79710      -10.69110
C         -1.76690        3.10100      -11.06860
C         -2.22750        4.05010      -10.15650
S         -2.44700        5.69970      -10.75070
C         -3.94730        6.29770       -9.88800
C         -5.14650        5.40980      -10.15120
C         -2.42170        3.62850       -8.84460
C         -2.22190        2.31860       -8.45840
F         -2.80700        4.50060       -7.88720
C         -2.39120       -0.78710       -8.22120
S         -3.64240       -0.16830       -7.16310
C          0.86460       -0.03670       -9.74640
C          1.92660       -0.90160       -9.74570
S          1.38630       -2.58020       -9.74750
C          3.23820       -0.64840       -9.22810
C          3.71320        0.51350       -8.68350
C          4.61290        0.30660       -7.60320
C          5.06450        1.27460       -6.68470
C          4.97990        2.69810       -7.02150
C          5.42460        3.14000       -8.26960
C          5.37410        4.47390       -8.60350
C          4.86070        5.42750       -7.72170
S          4.82090        7.09160       -8.30030
C          4.86270        8.12220       -6.78020
C          5.33240        9.51440       -7.15390
C          4.38890        4.96780       -6.49560
F          3.82330        5.81340       -5.60400
C          4.45750        3.63620       -6.13830
C          5.51710        0.79600       -5.46200
C          5.61450       -0.58750       -5.16560
C          5.35490       -1.55070       -6.15900
C          5.54100       -2.97950       -5.87890
C          6.71380       -3.43230       -5.27660
C          6.89860       -4.76660       -4.97120
C          5.90980       -5.70400       -5.25020
S          5.99810       -7.42750       -4.88970
C          7.25530       -7.53220       -3.57100
C          6.80110       -6.86650       -2.28630
C          4.75510       -5.24130       -5.87870
C          4.55450       -3.91570       -6.18420
F          3.77180       -6.12270       -6.16860
C          4.82220       -1.07160       -7.34430
S          4.11120       -2.04650       -8.60480
C          5.83440       -0.82010       -3.78520
C          5.95280        0.31690       -3.04180
S          5.89680        1.75490       -4.05020
C          5.95960        0.43720       -1.61300
C          5.26620       -0.42460       -0.83800
C          5.11520       -0.34790        0.57650
C          4.15870       -1.05950        1.21830
C          3.92160       -1.05380        2.62080
C          2.82090       -1.61700        3.16900
C          2.55700       -1.71580        4.56850
C          3.43520       -1.64160        5.61090
C          2.84080       -1.83990        6.88170
C          3.47800       -1.84570        8.13350
C          4.93510       -1.72980        8.25300
C          5.51910       -0.81890        9.12860
C          6.89150       -0.70340        9.23040
C          7.73360       -1.50750        8.47100
S          9.49470       -1.44090        8.48250
C          9.89290       -0.56630       10.03480
C          9.55340       -1.39060       11.26180
C          7.13530       -2.42110        7.60140
F          7.91930       -3.21780        6.84570
C          5.76900       -2.54070        7.48340
C          2.65670       -1.97540        9.24340
C          1.25760       -2.16810        9.15350
C          0.63010       -2.24290        7.89800
C         -0.80360       -2.54060        7.80250
C         -1.36520       -3.56060        8.57320
C         -2.72530       -3.78740        8.56630
C         -3.57370       -3.02270        7.77200
S         -5.31990       -3.30610        7.85670
C         -5.97470       -1.60110        8.02080
C         -5.35540       -0.86950        9.19520
C         -2.99040       -2.08040        6.93270
C         -1.63650       -1.81890        6.95270
F         -3.76120       -1.38330        6.07060
C          1.43870       -2.03560        6.78780
S          0.92090       -2.02870        5.12280
C          0.65840       -2.23370       10.44810
C          1.55420       -2.14060       11.45100
S          3.18650       -1.95880       10.90740
H         -3.78570        3.54080       10.69200
H         -1.71900        2.71710        9.34860
H         -0.82170        0.63780        8.77120
H          1.61550        0.64530        9.02400
H          4.51050        2.70420        5.54420
H          4.05480        1.01690        5.19080
H          6.52680        1.89430        6.77810
H          6.09550        0.22700        6.40880
H          6.54750        1.33380        5.10300
H         -0.37360        2.55250        4.96320
H         -6.10920        3.35150        4.22240
H         -8.43800        3.82420        3.71600
H        -10.54640        4.12040        3.02940
H        -10.30650        5.25500        4.38900
H        -13.00470        4.15430        3.43940
H        -12.40170        5.78350        3.11000
H        -12.77410        5.29250        4.76760
H         -7.29300        1.20290        7.73340
H         -5.67460        0.92900        3.67950
H         -5.66490        0.43960        1.34740
H         -7.48520       -1.53750       -2.32530
H         -9.77040       -0.65420       -2.12960
H        -12.06130        2.51940        0.82420
H        -10.40470        3.15230        0.82980
H         -9.56380        0.94780        1.66700
H        -11.19330        0.27620        1.56080
H        -10.83300        1.53090        2.74800
H         -6.00160        1.97730       -0.37810
H         -0.59340       -0.95920       -3.17090
H          1.72050       -1.76180       -3.15490
H          3.04700       -3.62890       -3.77040
H          4.30570       -4.66550       -3.07420
H          2.50180       -6.09310       -4.02160
H          2.53030       -6.25120       -2.26310
H          1.29600       -5.25300       -3.04090
H         -1.40850       -3.28940        0.33380
H         -2.11430       -2.45380       -4.13170
H         -2.76760       -3.61700       -6.43220
H          1.01400       -3.93640       -7.37060
H          1.44910       -6.27190       -6.89380
H          1.66780       -8.18150       -6.03450
H          1.53550       -9.89760       -6.44110
H          3.54950       -8.84280       -7.51810
H          2.49040       -7.74790       -8.40670
H          2.41090       -9.48460       -8.71300
H         -2.74240       -4.97210       -9.14250
H         -1.19330        1.08140      -11.42240
H         -1.59620        3.41370      -12.08690
H         -3.73320        6.39140       -8.82580
H         -4.09390        7.29210      -10.31020
H         -4.99680        4.41800       -9.72860
H         -6.03190        5.84650       -9.69360
H         -5.31930        5.30760      -11.22060
H         -2.37900        2.06380       -7.42290
H          0.97560        1.03290       -9.76110
H          3.32780        1.48480       -8.93710
H          5.83770        2.42850       -8.96850
H          5.73480        4.81150       -9.56270
H          5.55230        7.64690       -6.08440
H          3.86180        8.14630       -6.35220
H          4.65530        9.96420       -7.87660
H          6.32800        9.47830       -7.59060
H          5.36140       10.14170       -6.26570
H          4.06180        3.34460       -5.17850
H          7.50220       -2.72820       -5.05780
H          7.82600       -5.07430       -4.51540
H          8.19200       -7.12090       -3.94540
H          7.38090       -8.60550       -3.42850
H          7.54880       -7.01510       -1.51000
H          5.86120       -7.29760       -1.94950
H          6.65910       -5.79650       -2.42580
H          3.62020       -3.62440       -6.63480
H          5.86630       -1.80370       -3.35220
H          6.44380        1.30390       -1.18440
H          4.71840       -1.22420       -1.31930
H          5.75640        0.32940        1.12560
H          3.50210       -1.68550        0.62740
H          4.65750       -0.57030        3.24970
H          2.06170       -2.02680        2.51590
H          4.48780       -1.47550        5.47410
H          4.89400       -0.16270        9.71240
H          7.30040        0.03320        9.90210
H          9.39280        0.40130       10.03090
H         10.96780       -0.40070        9.96280
H          8.48670       -1.59950       11.30960
H          9.84310       -0.85130       12.16170
H         10.08760       -2.33750       11.23620
H          5.36260       -3.28170        6.81260
H         -0.72560       -4.18250        9.18050
H         -3.15650       -4.55880        9.18520
H         -7.04260       -1.75720        8.17250
H         -5.82260       -1.06970        7.08290
H         -5.85710        0.08410        9.34800
H         -5.45150       -1.45890       10.10470
H         -4.29860       -0.67350        9.01790
H         -1.24310       -1.04790        6.31060
H         -0.40070       -2.32290       10.60820
H          1.36550       -2.15830       12.50670
