
  xtb     03052209263D
 energy: -453.568470371903 gnorm: 0.000772455546 xtb: 6.4.1 (unknown)
264288  0     0  0            999 V2000
   -3.7867    3.1245    9.7036 C   0  0  0  0  0  0  0  0  0  0  0  0
   -2.7319    2.6795    8.9920 C   0  0  0  0  0  0  0  0  0  0  0  0
   -3.0949    2.1825    7.7035 C   0  0  0  0  0  0  0  0  0  0  0  0
   -2.2569    1.6899    6.6900 C   0  0  0  0  0  0  0  0  0  0  0  0
   -0.8001    1.6104    6.8559 C   0  0  0  0  0  0  0  0  0  0  0  0
   -0.2061    1.0702    7.9971 C   0  0  0  0  0  0  0  0  0  0  0  0
    1.1639    1.0525    8.1333 C   0  0  0  0  0  0  0  0  0  0  0  0
    2.0084    1.5590    7.1434 C   0  0  0  0  0  0  0  0  0  0  0  0
    3.7328    1.5380    7.5058 S   0  0  0  0  0  0  0  0  0  0  0  0
    4.5800    1.6720    5.8840 C   0  0  0  0  0  0  0  0  0  0  0  0
    6.0273    1.2534    6.0551 C   0  0  0  0  0  0  0  0  0  0  0  0
    1.4032    2.0810    6.0050 C   0  0  0  0  0  0  0  0  0  0  0  0
    2.1343    2.6205    5.0030 F   0  0  0  0  0  0  0  0  0  0  0  0
    0.0319    2.1051    5.8568 C   0  0  0  0  0  0  0  0  0  0  0  0
   -2.8729    1.3222    5.5000 C   0  0  0  0  0  0  0  0  0  0  0  0
   -4.2652    1.4505    5.2799 C   0  0  0  0  0  0  0  0  0  0  0  0
   -5.0965    1.9817    6.2771 C   0  0  0  0  0  0  0  0  0  0  0  0
   -6.5158    2.2392    6.0065 C   0  0  0  0  0  0  0  0  0  0  0  0
   -6.8782    2.9739    4.8795 C   0  0  0  0  0  0  0  0  0  0  0  0
   -8.2007    3.2523    4.5981 C   0  0  0  0  0  0  0  0  0  0  0  0
   -9.2138    2.7990    5.4361 C   0  0  0  0  0  0  0  0  0  0  0  0
  -10.9325    3.0754    5.1703 S   0  0  0  0  0  0  0  0  0  0  0  0
  -10.9447    4.4716    3.9806 C   0  0  0  0  0  0  0  0  0  0  0  0
  -12.3724    4.9557    3.8150 C   0  0  0  0  0  0  0  0  0  0  0  0
   -8.8380    2.0563    6.5566 C   0  0  0  0  0  0  0  0  0  0  0  0
   -7.5213    1.7827    6.8539 C   0  0  0  0  0  0  0  0  0  0  0  0
   -9.7943    1.5876    7.3829 F   0  0  0  0  0  0  0  0  0  0  0  0
   -4.4890    2.3034    7.4807 C   0  0  0  0  0  0  0  0  0  0  0  0
   -5.2960    2.9887    8.8686 S   0  0  0  0  0  0  0  0  0  0  0  0
   -4.6534    0.9537    4.0116 C   0  0  0  0  0  0  0  0  0  0  0  0
   -3.6143    0.4638    3.2788 C   0  0  0  0  0  0  0  0  0  0  0  0
   -2.0874    0.6022    4.1191 S   0  0  0  0  0  0  0  0  0  0  0  0
   -3.6658   -0.0532    1.9485 C   0  0  0  0  0  0  0  0  0  0  0  0
   -4.7131    0.0224    1.0776 C   0  0  0  0  0  0  0  0  0  0  0  0
   -4.4173   -0.4828   -0.2136 C   0  0  0  0  0  0  0  0  0  0  0  0
   -5.2193   -0.4402   -1.3686 C   0  0  0  0  0  0  0  0  0  0  0  0
   -6.5718    0.1279   -1.3307 C   0  0  0  0  0  0  0  0  0  0  0  0
   -7.6516   -0.5800   -1.8567 C   0  0  0  0  0  0  0  0  0  0  0  0
   -8.9356   -0.0921   -1.7415 C   0  0  0  0  0  0  0  0  0  0  0  0
   -9.1952    1.1208   -1.1078 C   0  0  0  0  0  0  0  0  0  0  0  0
  -10.8797    1.6513   -0.9957 S   0  0  0  0  0  0  0  0  0  0  0  0
  -11.0087    2.2525    0.7313 C   0  0  0  0  0  0  0  0  0  0  0  0
  -10.6240    1.1861    1.7373 C   0  0  0  0  0  0  0  0  0  0  0  0
   -8.1025    1.8461   -0.6433 C   0  0  0  0  0  0  0  0  0  0  0  0
   -8.2723    3.0570   -0.0629 F   0  0  0  0  0  0  0  0  0  0  0  0
   -6.8132    1.3649   -0.7397 C   0  0  0  0  0  0  0  0  0  0  0  0
   -4.6624   -0.9534   -2.5308 C   0  0  0  0  0  0  0  0  0  0  0  0
   -3.3761   -1.5472   -2.5716 C   0  0  0  0  0  0  0  0  0  0  0  0
   -2.5674   -1.5775   -1.4238 C   0  0  0  0  0  0  0  0  0  0  0  0
   -1.1862   -2.0787   -1.4398 C   0  0  0  0  0  0  0  0  0  0  0  0
   -0.2801   -1.6634   -2.4155 C   0  0  0  0  0  0  0  0  0  0  0  0
    1.0276   -2.1051   -2.4009 C   0  0  0  0  0  0  0  0  0  0  0  0
    1.4722   -2.9745   -1.4137 C   0  0  0  0  0  0  0  0  0  0  0  0
    3.1542   -3.5505   -1.3676 S   0  0  0  0  0  0  0  0  0  0  0  0
    3.2607   -4.3671   -2.9977 C   0  0  0  0  0  0  0  0  0  0  0  0
    2.3383   -5.5655   -3.0856 C   0  0  0  0  0  0  0  0  0  0  0  0
    0.5708   -3.3629   -0.4290 C   0  0  0  0  0  0  0  0  0  0  0  0
   -0.7415   -2.9351   -0.4361 C   0  0  0  0  0  0  0  0  0  0  0  0
    0.9735   -4.1838    0.5570 F   0  0  0  0  0  0  0  0  0  0  0  0
   -3.1098   -1.0273   -0.2723 C   0  0  0  0  0  0  0  0  0  0  0  0
   -2.2671   -0.8248    1.2401 S   0  0  0  0  0  0  0  0  0  0  0  0
   -3.0376   -1.9638   -3.8824 C   0  0  0  0  0  0  0  0  0  0  0  0
   -3.9573   -1.6149   -4.8271 C   0  0  0  0  0  0  0  0  0  0  0  0
   -5.3618   -0.8454   -4.1309 S   0  0  0  0  0  0  0  0  0  0  0  0
   -3.6275   -1.6600   -6.2283 C   0  0  0  0  0  0  0  0  0  0  0  0
   -2.8866   -2.6262   -6.8328 C   0  0  0  0  0  0  0  0  0  0  0  0
   -2.1688   -2.1634   -7.9667 C   0  0  0  0  0  0  0  0  0  0  0  0
   -1.1202   -2.8517   -8.5959 C   0  0  0  0  0  0  0  0  0  0  0  0
   -0.8759   -4.2752   -8.3162 C   0  0  0  0  0  0  0  0  0  0  0  0
    0.2916   -4.6775   -7.6756 C   0  0  0  0  0  0  0  0  0  0  0  0
    0.5357   -6.0072   -7.3970 C   0  0  0  0  0  0  0  0  0  0  0  0
   -0.3809   -6.9878   -7.7596 C   0  0  0  0  0  0  0  0  0  0  0  0
   -0.1935   -8.7123   -7.4660 S   0  0  0  0  0  0  0  0  0  0  0  0
    1.5172   -8.8871   -6.8495 C   0  0  0  0  0  0  0  0  0  0  0  0
    2.5546   -8.7296   -7.9438 C   0  0  0  0  0  0  0  0  0  0  0  0
   -1.5579   -6.5670   -8.3836 C   0  0  0  0  0  0  0  0  0  0  0  0
   -2.4797   -7.4875   -8.7328 F   0  0  0  0  0  0  0  0  0  0  0  0
   -1.8183   -5.2419   -8.6553 C   0  0  0  0  0  0  0  0  0  0  0  0
   -0.2193   -2.0685   -9.2917 C   0  0  0  0  0  0  0  0  0  0  0  0
   -0.3763   -0.6715   -9.4673 C   0  0  0  0  0  0  0  0  0  0  0  0
   -1.5571   -0.0304   -9.0373 C   0  0  0  0  0  0  0  0  0  0  0  0
   -1.7797    1.3761   -9.3809 C   0  0  0  0  0  0  0  0  0  0  0  0
   -1.5372    1.7971  -10.6911 C   0  0  0  0  0  0  0  0  0  0  0  0
   -1.7669    3.1010  -11.0686 C   0  0  0  0  0  0  0  0  0  0  0  0
   -2.2275    4.0501  -10.1565 C   0  0  0  0  0  0  0  0  0  0  0  0
   -2.4470    5.6997  -10.7507 S   0  0  0  0  0  0  0  0  0  0  0  0
   -3.9473    6.2977   -9.8880 C   0  0  0  0  0  0  0  0  0  0  0  0
   -5.1465    5.4098  -10.1512 C   0  0  0  0  0  0  0  0  0  0  0  0
   -2.4217    3.6285   -8.8446 C   0  0  0  0  0  0  0  0  0  0  0  0
   -2.2219    2.3186   -8.4584 C   0  0  0  0  0  0  0  0  0  0  0  0
   -2.8070    4.5006   -7.8872 F   0  0  0  0  0  0  0  0  0  0  0  0
   -2.3912   -0.7871   -8.2212 C   0  0  0  0  0  0  0  0  0  0  0  0
   -3.6424   -0.1683   -7.1631 S   0  0  0  0  0  0  0  0  0  0  0  0
    0.8646   -0.0367   -9.7464 C   0  0  0  0  0  0  0  0  0  0  0  0
    1.9266   -0.9016   -9.7457 C   0  0  0  0  0  0  0  0  0  0  0  0
    1.3863   -2.5802   -9.7475 S   0  0  0  0  0  0  0  0  0  0  0  0
    3.2382   -0.6484   -9.2281 C   0  0  0  0  0  0  0  0  0  0  0  0
    3.7132    0.5135   -8.6835 C   0  0  0  0  0  0  0  0  0  0  0  0
    4.6129    0.3066   -7.6032 C   0  0  0  0  0  0  0  0  0  0  0  0
    5.0645    1.2746   -6.6847 C   0  0  0  0  0  0  0  0  0  0  0  0
    4.9799    2.6981   -7.0215 C   0  0  0  0  0  0  0  0  0  0  0  0
    5.4246    3.1400   -8.2696 C   0  0  0  0  0  0  0  0  0  0  0  0
    5.3741    4.4739   -8.6035 C   0  0  0  0  0  0  0  0  0  0  0  0
    4.8607    5.4275   -7.7217 C   0  0  0  0  0  0  0  0  0  0  0  0
    4.8209    7.0916   -8.3003 S   0  0  0  0  0  0  0  0  0  0  0  0
    4.8627    8.1222   -6.7802 C   0  0  0  0  0  0  0  0  0  0  0  0
    5.3324    9.5144   -7.1539 C   0  0  0  0  0  0  0  0  0  0  0  0
    4.3889    4.9678   -6.4956 C   0  0  0  0  0  0  0  0  0  0  0  0
    3.8233    5.8134   -5.6040 F   0  0  0  0  0  0  0  0  0  0  0  0
    4.4575    3.6362   -6.1383 C   0  0  0  0  0  0  0  0  0  0  0  0
    5.5171    0.7960   -5.4620 C   0  0  0  0  0  0  0  0  0  0  0  0
    5.6145   -0.5875   -5.1656 C   0  0  0  0  0  0  0  0  0  0  0  0
    5.3549   -1.5507   -6.1590 C   0  0  0  0  0  0  0  0  0  0  0  0
    5.5410   -2.9795   -5.8789 C   0  0  0  0  0  0  0  0  0  0  0  0
    6.7138   -3.4323   -5.2766 C   0  0  0  0  0  0  0  0  0  0  0  0
    6.8986   -4.7666   -4.9712 C   0  0  0  0  0  0  0  0  0  0  0  0
    5.9098   -5.7040   -5.2502 C   0  0  0  0  0  0  0  0  0  0  0  0
    5.9981   -7.4275   -4.8897 S   0  0  0  0  0  0  0  0  0  0  0  0
    7.2553   -7.5322   -3.5710 C   0  0  0  0  0  0  0  0  0  0  0  0
    6.8011   -6.8665   -2.2863 C   0  0  0  0  0  0  0  0  0  0  0  0
    4.7551   -5.2413   -5.8787 C   0  0  0  0  0  0  0  0  0  0  0  0
    4.5545   -3.9157   -6.1842 C   0  0  0  0  0  0  0  0  0  0  0  0
    3.7718   -6.1227   -6.1686 F   0  0  0  0  0  0  0  0  0  0  0  0
    4.8222   -1.0716   -7.3443 C   0  0  0  0  0  0  0  0  0  0  0  0
    4.1112   -2.0465   -8.6048 S   0  0  0  0  0  0  0  0  0  0  0  0
    5.8344   -0.8201   -3.7852 C   0  0  0  0  0  0  0  0  0  0  0  0
    5.9528    0.3169   -3.0418 C   0  0  0  0  0  0  0  0  0  0  0  0
    5.8968    1.7549   -4.0502 S   0  0  0  0  0  0  0  0  0  0  0  0
    5.9596    0.4372   -1.6130 C   0  0  0  0  0  0  0  0  0  0  0  0
    5.2662   -0.4246   -0.8380 C   0  0  0  0  0  0  0  0  0  0  0  0
    5.1152   -0.3479    0.5765 C   0  0  0  0  0  0  0  0  0  0  0  0
    4.1587   -1.0595    1.2183 C   0  0  0  0  0  0  0  0  0  0  0  0
    3.9216   -1.0538    2.6208 C   0  0  0  0  0  0  0  0  0  0  0  0
    2.8209   -1.6170    3.1690 C   0  0  0  0  0  0  0  0  0  0  0  0
    2.5570   -1.7158    4.5685 C   0  0  0  0  0  0  0  0  0  0  0  0
    3.4352   -1.6416    5.6109 C   0  0  0  0  0  0  0  0  0  0  0  0
    2.8408   -1.8399    6.8817 C   0  0  0  0  0  0  0  0  0  0  0  0
    3.4780   -1.8457    8.1335 C   0  0  0  0  0  0  0  0  0  0  0  0
    4.9351   -1.7298    8.2530 C   0  0  0  0  0  0  0  0  0  0  0  0
    5.5191   -0.8189    9.1286 C   0  0  0  0  0  0  0  0  0  0  0  0
    6.8915   -0.7034    9.2304 C   0  0  0  0  0  0  0  0  0  0  0  0
    7.7336   -1.5075    8.4710 C   0  0  0  0  0  0  0  0  0  0  0  0
    9.4947   -1.4409    8.4825 S   0  0  0  0  0  0  0  0  0  0  0  0
    9.8929   -0.5663   10.0348 C   0  0  0  0  0  0  0  0  0  0  0  0
    9.5534   -1.3906   11.2618 C   0  0  0  0  0  0  0  0  0  0  0  0
    7.1353   -2.4211    7.6014 C   0  0  0  0  0  0  0  0  0  0  0  0
    7.9193   -3.2178    6.8457 F   0  0  0  0  0  0  0  0  0  0  0  0
    5.7690   -2.5407    7.4834 C   0  0  0  0  0  0  0  0  0  0  0  0
    2.6567   -1.9754    9.2434 C   0  0  0  0  0  0  0  0  0  0  0  0
    1.2576   -2.1681    9.1535 C   0  0  0  0  0  0  0  0  0  0  0  0
    0.6301   -2.2429    7.8980 C   0  0  0  0  0  0  0  0  0  0  0  0
   -0.8036   -2.5406    7.8025 C   0  0  0  0  0  0  0  0  0  0  0  0
   -1.3652   -3.5606    8.5732 C   0  0  0  0  0  0  0  0  0  0  0  0
   -2.7253   -3.7874    8.5663 C   0  0  0  0  0  0  0  0  0  0  0  0
   -3.5737   -3.0227    7.7720 C   0  0  0  0  0  0  0  0  0  0  0  0
   -5.3199   -3.3061    7.8567 S   0  0  0  0  0  0  0  0  0  0  0  0
   -5.9747   -1.6011    8.0208 C   0  0  0  0  0  0  0  0  0  0  0  0
   -5.3554   -0.8695    9.1952 C   0  0  0  0  0  0  0  0  0  0  0  0
   -2.9904   -2.0804    6.9327 C   0  0  0  0  0  0  0  0  0  0  0  0
   -1.6365   -1.8189    6.9527 C   0  0  0  0  0  0  0  0  0  0  0  0
   -3.7612   -1.3833    6.0706 F   0  0  0  0  0  0  0  0  0  0  0  0
    1.4387   -2.0356    6.7878 C   0  0  0  0  0  0  0  0  0  0  0  0
    0.9209   -2.0287    5.1228 S   0  0  0  0  0  0  0  0  0  0  0  0
    0.6584   -2.2337   10.4481 C   0  0  0  0  0  0  0  0  0  0  0  0
    1.5542   -2.1406   11.4510 C   0  0  0  0  0  0  0  0  0  0  0  0
    3.1865   -1.9588   10.9074 S   0  0  0  0  0  0  0  0  0  0  0  0
   -3.7857    3.5408   10.6920 H   0  0  0  0  0  0  0  0  0  0  0  0
   -1.7190    2.7171    9.3486 H   0  0  0  0  0  0  0  0  0  0  0  0
   -0.8217    0.6378    8.7712 H   0  0  0  0  0  0  0  0  0  0  0  0
    1.6155    0.6453    9.0240 H   0  0  0  0  0  0  0  0  0  0  0  0
    4.5105    2.7042    5.5442 H   0  0  0  0  0  0  0  0  0  0  0  0
    4.0548    1.0169    5.1908 H   0  0  0  0  0  0  0  0  0  0  0  0
    6.5268    1.8943    6.7781 H   0  0  0  0  0  0  0  0  0  0  0  0
    6.0955    0.2270    6.4088 H   0  0  0  0  0  0  0  0  0  0  0  0
    6.5475    1.3338    5.1030 H   0  0  0  0  0  0  0  0  0  0  0  0
   -0.3736    2.5525    4.9632 H   0  0  0  0  0  0  0  0  0  0  0  0
   -6.1092    3.3515    4.2224 H   0  0  0  0  0  0  0  0  0  0  0  0
   -8.4380    3.8242    3.7160 H   0  0  0  0  0  0  0  0  0  0  0  0
  -10.5464    4.1204    3.0294 H   0  0  0  0  0  0  0  0  0  0  0  0
  -10.3065    5.2550    4.3890 H   0  0  0  0  0  0  0  0  0  0  0  0
  -13.0047    4.1543    3.4394 H   0  0  0  0  0  0  0  0  0  0  0  0
  -12.4017    5.7835    3.1100 H   0  0  0  0  0  0  0  0  0  0  0  0
  -12.7741    5.2925    4.7676 H   0  0  0  0  0  0  0  0  0  0  0  0
   -7.2930    1.2029    7.7334 H   0  0  0  0  0  0  0  0  0  0  0  0
   -5.6746    0.9290    3.6795 H   0  0  0  0  0  0  0  0  0  0  0  0
   -5.6649    0.4396    1.3474 H   0  0  0  0  0  0  0  0  0  0  0  0
   -7.4852   -1.5375   -2.3253 H   0  0  0  0  0  0  0  0  0  0  0  0
   -9.7704   -0.6542   -2.1296 H   0  0  0  0  0  0  0  0  0  0  0  0
  -12.0613    2.5194    0.8242 H   0  0  0  0  0  0  0  0  0  0  0  0
  -10.4047    3.1523    0.8298 H   0  0  0  0  0  0  0  0  0  0  0  0
   -9.5638    0.9478    1.6670 H   0  0  0  0  0  0  0  0  0  0  0  0
  -11.1933    0.2762    1.5608 H   0  0  0  0  0  0  0  0  0  0  0  0
  -10.8330    1.5309    2.7480 H   0  0  0  0  0  0  0  0  0  0  0  0
   -6.0016    1.9773   -0.3781 H   0  0  0  0  0  0  0  0  0  0  0  0
   -0.5934   -0.9592   -3.1709 H   0  0  0  0  0  0  0  0  0  0  0  0
    1.7205   -1.7618   -3.1549 H   0  0  0  0  0  0  0  0  0  0  0  0
    3.0470   -3.6289   -3.7704 H   0  0  0  0  0  0  0  0  0  0  0  0
    4.3057   -4.6655   -3.0742 H   0  0  0  0  0  0  0  0  0  0  0  0
    2.5018   -6.0931   -4.0216 H   0  0  0  0  0  0  0  0  0  0  0  0
    2.5303   -6.2512   -2.2631 H   0  0  0  0  0  0  0  0  0  0  0  0
    1.2960   -5.2530   -3.0409 H   0  0  0  0  0  0  0  0  0  0  0  0
   -1.4085   -3.2894    0.3338 H   0  0  0  0  0  0  0  0  0  0  0  0
   -2.1143   -2.4538   -4.1317 H   0  0  0  0  0  0  0  0  0  0  0  0
   -2.7676   -3.6170   -6.4322 H   0  0  0  0  0  0  0  0  0  0  0  0
    1.0140   -3.9364   -7.3706 H   0  0  0  0  0  0  0  0  0  0  0  0
    1.4491   -6.2719   -6.8938 H   0  0  0  0  0  0  0  0  0  0  0  0
    1.6678   -8.1815   -6.0345 H   0  0  0  0  0  0  0  0  0  0  0  0
    1.5355   -9.8976   -6.4411 H   0  0  0  0  0  0  0  0  0  0  0  0
    3.5495   -8.8428   -7.5181 H   0  0  0  0  0  0  0  0  0  0  0  0
    2.4904   -7.7479   -8.4067 H   0  0  0  0  0  0  0  0  0  0  0  0
    2.4109   -9.4846   -8.7130 H   0  0  0  0  0  0  0  0  0  0  0  0
   -2.7424   -4.9721   -9.1425 H   0  0  0  0  0  0  0  0  0  0  0  0
   -1.1933    1.0814  -11.4224 H   0  0  0  0  0  0  0  0  0  0  0  0
   -1.5962    3.4137  -12.0869 H   0  0  0  0  0  0  0  0  0  0  0  0
   -3.7332    6.3914   -8.8258 H   0  0  0  0  0  0  0  0  0  0  0  0
   -4.0939    7.2921  -10.3102 H   0  0  0  0  0  0  0  0  0  0  0  0
   -4.9968    4.4180   -9.7286 H   0  0  0  0  0  0  0  0  0  0  0  0
   -6.0319    5.8465   -9.6936 H   0  0  0  0  0  0  0  0  0  0  0  0
   -5.3193    5.3076  -11.2206 H   0  0  0  0  0  0  0  0  0  0  0  0
   -2.3790    2.0638   -7.4229 H   0  0  0  0  0  0  0  0  0  0  0  0
    0.9756    1.0329   -9.7611 H   0  0  0  0  0  0  0  0  0  0  0  0
    3.3278    1.4848   -8.9371 H   0  0  0  0  0  0  0  0  0  0  0  0
    5.8377    2.4285   -8.9685 H   0  0  0  0  0  0  0  0  0  0  0  0
    5.7348    4.8115   -9.5627 H   0  0  0  0  0  0  0  0  0  0  0  0
    5.5523    7.6469   -6.0844 H   0  0  0  0  0  0  0  0  0  0  0  0
    3.8618    8.1463   -6.3522 H   0  0  0  0  0  0  0  0  0  0  0  0
    4.6553    9.9642   -7.8766 H   0  0  0  0  0  0  0  0  0  0  0  0
    6.3280    9.4783   -7.5906 H   0  0  0  0  0  0  0  0  0  0  0  0
    5.3614   10.1417   -6.2657 H   0  0  0  0  0  0  0  0  0  0  0  0
    4.0618    3.3446   -5.1785 H   0  0  0  0  0  0  0  0  0  0  0  0
    7.5022   -2.7282   -5.0578 H   0  0  0  0  0  0  0  0  0  0  0  0
    7.8260   -5.0743   -4.5154 H   0  0  0  0  0  0  0  0  0  0  0  0
    8.1920   -7.1209   -3.9454 H   0  0  0  0  0  0  0  0  0  0  0  0
    7.3809   -8.6055   -3.4285 H   0  0  0  0  0  0  0  0  0  0  0  0
    7.5488   -7.0151   -1.5100 H   0  0  0  0  0  0  0  0  0  0  0  0
    5.8612   -7.2976   -1.9495 H   0  0  0  0  0  0  0  0  0  0  0  0
    6.6591   -5.7965   -2.4258 H   0  0  0  0  0  0  0  0  0  0  0  0
    3.6202   -3.6244   -6.6348 H   0  0  0  0  0  0  0  0  0  0  0  0
    5.8663   -1.8037   -3.3522 H   0  0  0  0  0  0  0  0  0  0  0  0
    6.4438    1.3039   -1.1844 H   0  0  0  0  0  0  0  0  0  0  0  0
    4.7184   -1.2242   -1.3193 H   0  0  0  0  0  0  0  0  0  0  0  0
    5.7564    0.3294    1.1256 H   0  0  0  0  0  0  0  0  0  0  0  0
    3.5021   -1.6855    0.6274 H   0  0  0  0  0  0  0  0  0  0  0  0
    4.6575   -0.5703    3.2497 H   0  0  0  0  0  0  0  0  0  0  0  0
    2.0617   -2.0268    2.5159 H   0  0  0  0  0  0  0  0  0  0  0  0
    4.4878   -1.4755    5.4741 H   0  0  0  0  0  0  0  0  0  0  0  0
    4.8940   -0.1627    9.7124 H   0  0  0  0  0  0  0  0  0  0  0  0
    7.3004    0.0332    9.9021 H   0  0  0  0  0  0  0  0  0  0  0  0
    9.3928    0.4013   10.0309 H   0  0  0  0  0  0  0  0  0  0  0  0
   10.9678   -0.4007    9.9628 H   0  0  0  0  0  0  0  0  0  0  0  0
    8.4867   -1.5995   11.3096 H   0  0  0  0  0  0  0  0  0  0  0  0
    9.8431   -0.8513   12.1617 H   0  0  0  0  0  0  0  0  0  0  0  0
   10.0876   -2.3375   11.2362 H   0  0  0  0  0  0  0  0  0  0  0  0
    5.3626   -3.2817    6.8126 H   0  0  0  0  0  0  0  0  0  0  0  0
   -0.7256   -4.1825    9.1805 H   0  0  0  0  0  0  0  0  0  0  0  0
   -3.1565   -4.5588    9.1852 H   0  0  0  0  0  0  0  0  0  0  0  0
   -7.0426   -1.7572    8.1725 H   0  0  0  0  0  0  0  0  0  0  0  0
   -5.8226   -1.0697    7.0829 H   0  0  0  0  0  0  0  0  0  0  0  0
   -5.8571    0.0841    9.3480 H   0  0  0  0  0  0  0  0  0  0  0  0
   -5.4515   -1.4589   10.1047 H   0  0  0  0  0  0  0  0  0  0  0  0
   -4.2986   -0.6735    9.0179 H   0  0  0  0  0  0  0  0  0  0  0  0
   -1.2431   -1.0479    6.3106 H   0  0  0  0  0  0  0  0  0  0  0  0
   -0.4007   -2.3229   10.6082 H   0  0  0  0  0  0  0  0  0  0  0  0
    1.3655   -2.1583   12.5067 H   0  0  0  0  0  0  0  0  0  0  0  0
  1  2  2  0  0  0  0
  2  3  1  0  0  0  0
  3  4  2  0  0  0  0
  4  5  1  0  0  0  0
  5  6  2  0  0  0  0
  6  7  1  0  0  0  0
  7  8  2  0  0  0  0
  8  9  1  0  0  0  0
  9 10  1  0  0  0  0
 10 11  1  0  0  0  0
  8 12  1  0  0  0  0
 12 13  1  0  0  0  0
 12 14  2  0  0  0  0
  4 15  1  0  0  0  0
 15 16  2  0  0  0  0
 16 17  1  0  0  0  0
 17 18  1  0  0  0  0
 18 19  2  0  0  0  0
 19 20  1  0  0  0  0
 20 21  2  0  0  0  0
 21 22  1  0  0  0  0
 22 23  1  0  0  0  0
 23 24  1  0  0  0  0
 21 25  1  0  0  0  0
 25 26  2  0  0  0  0
 25 27  1  0  0  0  0
 17 28  2  0  0  0  0
 28 29  1  0  0  0  0
 16 30  1  0  0  0  0
 30 31  2  0  0  0  0
 31 32  1  0  0  0  0
 31 33  1  0  0  0  0
 33 34  2  0  0  0  0
 34 35  1  0  0  0  0
 35 36  2  0  0  0  0
 36 37  1  0  0  0  0
 37 38  2  0  0  0  0
 38 39  1  0  0  0  0
 39 40  2  0  0  0  0
 40 41  1  0  0  0  0
 41 42  1  0  0  0  0
 42 43  1  0  0  0  0
 40 44  1  0  0  0  0
 44 45  1  0  0  0  0
 44 46  2  0  0  0  0
 36 47  1  0  0  0  0
 47 48  2  0  0  0  0
 48 49  1  0  0  0  0
 49 50  1  0  0  0  0
 50 51  2  0  0  0  0
 51 52  1  0  0  0  0
 52 53  2  0  0  0  0
 53 54  1  0  0  0  0
 54 55  1  0  0  0  0
 55 56  1  0  0  0  0
 53 57  1  0  0  0  0
 57 58  2  0  0  0  0
 57 59  1  0  0  0  0
 49 60  2  0  0  0  0
 60 61  1  0  0  0  0
 48 62  1  0  0  0  0
 62 63  2  0  0  0  0
 63 64  1  0  0  0  0
 63 65  1  0  0  0  0
 65 66  2  0  0  0  0
 66 67  1  0  0  0  0
 67 68  2  0  0  0  0
 68 69  1  0  0  0  0
 69 70  2  0  0  0  0
 70 71  1  0  0  0  0
 71 72  2  0  0  0  0
 72 73  1  0  0  0  0
 73 74  1  0  0  0  0
 74 75  1  0  0  0  0
 72 76  1  0  0  0  0
 76 77  1  0  0  0  0
 76 78  2  0  0  0  0
 68 79  1  0  0  0  0
 79 80  2  0  0  0  0
 80 81  1  0  0  0  0
 81 82  1  0  0  0  0
 82 83  2  0  0  0  0
 83 84  1  0  0  0  0
 84 85  2  0  0  0  0
 85 86  1  0  0  0  0
 86 87  1  0  0  0  0
 87 88  1  0  0  0  0
 85 89  1  0  0  0  0
 89 90  2  0  0  0  0
 89 91  1  0  0  0  0
 81 92  2  0  0  0  0
 92 93  1  0  0  0  0
 80 94  1  0  0  0  0
 94 95  2  0  0  0  0
 95 96  1  0  0  0  0
 95 97  1  0  0  0  0
 97 98  2  0  0  0  0
 98 99  1  0  0  0  0
 99100  2  0  0  0  0
100101  1  0  0  0  0
101102  2  0  0  0  0
102103  1  0  0  0  0
103104  2  0  0  0  0
104105  1  0  0  0  0
105106  1  0  0  0  0
106107  1  0  0  0  0
104108  1  0  0  0  0
108109  1  0  0  0  0
108110  2  0  0  0  0
100111  1  0  0  0  0
111112  2  0  0  0  0
112113  1  0  0  0  0
113114  1  0  0  0  0
114115  2  0  0  0  0
115116  1  0  0  0  0
116117  2  0  0  0  0
117118  1  0  0  0  0
118119  1  0  0  0  0
119120  1  0  0  0  0
117121  1  0  0  0  0
121122  2  0  0  0  0
121123  1  0  0  0  0
113124  2  0  0  0  0
124125  1  0  0  0  0
112126  1  0  0  0  0
126127  2  0  0  0  0
127128  1  0  0  0  0
127129  1  0  0  0  0
129130  2  0  0  0  0
130131  1  0  0  0  0
131132  2  0  0  0  0
132133  1  0  0  0  0
133134  2  0  0  0  0
134135  1  0  0  0  0
135136  2  0  0  0  0
136137  1  0  0  0  0
137138  2  0  0  0  0
138139  1  0  0  0  0
139140  2  0  0  0  0
140141  1  0  0  0  0
141142  2  0  0  0  0
142143  1  0  0  0  0
143144  1  0  0  0  0
144145  1  0  0  0  0
142146  1  0  0  0  0
146147  1  0  0  0  0
146148  2  0  0  0  0
138149  1  0  0  0  0
149150  2  0  0  0  0
150151  1  0  0  0  0
151152  1  0  0  0  0
152153  2  0  0  0  0
153154  1  0  0  0  0
154155  2  0  0  0  0
155156  1  0  0  0  0
156157  1  0  0  0  0
157158  1  0  0  0  0
155159  1  0  0  0  0
159160  2  0  0  0  0
159161  1  0  0  0  0
151162  2  0  0  0  0
162163  1  0  0  0  0
150164  1  0  0  0  0
164165  2  0  0  0  0
165166  1  0  0  0  0
 29  1  1  0  0  0  0
 61 33  1  0  0  0  0
 93 65  1  0  0  0  0
125 97  1  0  0  0  0
163135  1  0  0  0  0
 28  3  1  0  0  0  0
 60 35  1  0  0  0  0
 92 67  1  0  0  0  0
124 99  1  0  0  0  0
162137  1  0  0  0  0
 14  5  1  0  0  0  0
 32 15  1  0  0  0  0
 46 37  1  0  0  0  0
 64 47  1  0  0  0  0
 78 69  1  0  0  0  0
 96 79  1  0  0  0  0
110101  1  0  0  0  0
128111  1  0  0  0  0
148139  1  0  0  0  0
166149  1  0  0  0  0
 26 18  1  0  0  0  0
 58 50  1  0  0  0  0
 90 82  1  0  0  0  0
122114  1  0  0  0  0
160152  1  0  0  0  0
  1167  1  0  0  0  0
  2168  1  0  0  0  0
  6169  1  0  0  0  0
  7170  1  0  0  0  0
 10171  1  0  0  0  0
 10172  1  0  0  0  0
 11173  1  0  0  0  0
 11174  1  0  0  0  0
 11175  1  0  0  0  0
 14176  1  0  0  0  0
 19177  1  0  0  0  0
 20178  1  0  0  0  0
 23179  1  0  0  0  0
 23180  1  0  0  0  0
 24181  1  0  0  0  0
 24182  1  0  0  0  0
 24183  1  0  0  0  0
 26184  1  0  0  0  0
 30185  1  0  0  0  0
 34186  1  0  0  0  0
 38187  1  0  0  0  0
 39188  1  0  0  0  0
 42189  1  0  0  0  0
 42190  1  0  0  0  0
 43191  1  0  0  0  0
 43192  1  0  0  0  0
 43193  1  0  0  0  0
 46194  1  0  0  0  0
 51195  1  0  0  0  0
 52196  1  0  0  0  0
 55197  1  0  0  0  0
 55198  1  0  0  0  0
 56199  1  0  0  0  0
 56200  1  0  0  0  0
 56201  1  0  0  0  0
 58202  1  0  0  0  0
 62203  1  0  0  0  0
 66204  1  0  0  0  0
 70205  1  0  0  0  0
 71206  1  0  0  0  0
 74207  1  0  0  0  0
 74208  1  0  0  0  0
 75209  1  0  0  0  0
 75210  1  0  0  0  0
 75211  1  0  0  0  0
 78212  1  0  0  0  0
 83213  1  0  0  0  0
 84214  1  0  0  0  0
 87215  1  0  0  0  0
 87216  1  0  0  0  0
 88217  1  0  0  0  0
 88218  1  0  0  0  0
 88219  1  0  0  0  0
 90220  1  0  0  0  0
 94221  1  0  0  0  0
 98222  1  0  0  0  0
102223  1  0  0  0  0
103224  1  0  0  0  0
106225  1  0  0  0  0
106226  1  0  0  0  0
107227  1  0  0  0  0
107228  1  0  0  0  0
107229  1  0  0  0  0
110230  1  0  0  0  0
115231  1  0  0  0  0
116232  1  0  0  0  0
119233  1  0  0  0  0
119234  1  0  0  0  0
120235  1  0  0  0  0
120236  1  0  0  0  0
120237  1  0  0  0  0
122238  1  0  0  0  0
126239  1  0  0  0  0
129240  1  0  0  0  0
130241  1  0  0  0  0
131242  1  0  0  0  0
132243  1  0  0  0  0
133244  1  0  0  0  0
134245  1  0  0  0  0
136246  1  0  0  0  0
140247  1  0  0  0  0
141248  1  0  0  0  0
144249  1  0  0  0  0
144250  1  0  0  0  0
145251  1  0  0  0  0
145252  1  0  0  0  0
145253  1  0  0  0  0
148254  1  0  0  0  0
153255  1  0  0  0  0
154256  1  0  0  0  0
157257  1  0  0  0  0
157258  1  0  0  0  0
158259  1  0  0  0  0
158260  1  0  0  0  0
158261  1  0  0  0  0
160262  1  0  0  0  0
164263  1  0  0  0  0
165264  1  0  0  0  0
M  END
