
  xtb     03042208043D
 energy: -393.096130457590 gnorm: 0.001015558126 xtb: 6.4.1 (unknown)
226247  0     0  0            999 V2000
   -7.2480   -5.1869   15.3394 C   0  0  0  0  0  0  0  0  0  0  0  0
   -7.6802   -4.1087   14.6556 C   0  0  0  0  0  0  0  0  0  0  0  0
   -7.1390   -4.0302   13.3369 C   0  0  0  0  0  0  0  0  0  0  0  0
   -7.3393   -3.0284   12.3739 C   0  0  0  0  0  0  0  0  0  0  0  0
   -8.2536   -1.9049   12.6101 C   0  0  0  0  0  0  0  0  0  0  0  0
   -7.8474   -0.5924   12.3892 C   0  0  0  0  0  0  0  0  0  0  0  0
   -8.7037    0.4688   12.6095 C   0  0  0  0  0  0  0  0  0  0  0  0
  -10.0057    0.2551   13.0473 C   0  0  0  0  0  0  0  0  0  0  0  0
  -11.1904    1.5126   13.3886 S   0  0  0  0  0  0  0  0  0  0  0  0
  -10.5219    2.9934   12.5559 C   0  0  0  0  0  0  0  0  0  0  0  0
  -10.5725    2.8746   11.0446 C   0  0  0  0  0  0  0  0  0  0  0  0
  -10.3995   -1.0669   13.2650 C   0  0  0  0  0  0  0  0  0  0  0  0
  -11.6539   -1.3152   13.6935 F   0  0  0  0  0  0  0  0  0  0  0  0
   -9.5544   -2.1328   13.0562 C   0  0  0  0  0  0  0  0  0  0  0  0
   -6.6321   -3.1568   11.1864 C   0  0  0  0  0  0  0  0  0  0  0  0
   -5.7551   -4.2378   10.9292 C   0  0  0  0  0  0  0  0  0  0  0  0
   -5.5416   -5.2318   11.8966 C   0  0  0  0  0  0  0  0  0  0  0  0
   -4.5749   -6.3111   11.6596 C   0  0  0  0  0  0  0  0  0  0  0  0
   -4.9155   -7.6539   11.8073 C   0  0  0  0  0  0  0  0  0  0  0  0
   -3.9873   -8.6418   11.5590 C   0  0  0  0  0  0  0  0  0  0  0  0
   -2.6832   -8.3413   11.1614 C   0  0  0  0  0  0  0  0  0  0  0  0
   -1.6317   -9.7221   10.8254 S   0  0  0  0  0  0  0  0  0  0  0  0
    0.0831   -9.1695   11.1798 C   0  0  0  0  0  0  0  0  0  0  0  0
    0.8661   -8.8234    9.9287 C   0  0  0  0  0  0  0  0  0  0  0  0
   -2.3575   -6.9958   11.0231 C   0  0  0  0  0  0  0  0  0  0  0  0
   -3.2772   -5.9968   11.2696 C   0  0  0  0  0  0  0  0  0  0  0  0
   -1.1223   -6.6070   10.6401 F   0  0  0  0  0  0  0  0  0  0  0  0
   -6.2579   -5.1088   13.0767 C   0  0  0  0  0  0  0  0  0  0  0  0
   -6.1517   -6.1848   14.4455 S   0  0  0  0  0  0  0  0  0  0  0  0
   -5.2041   -4.1751    9.6268 C   0  0  0  0  0  0  0  0  0  0  0  0
   -5.6124   -3.0897    8.9084 C   0  0  0  0  0  0  0  0  0  0  0  0
   -6.7197   -2.0796    9.8141 S   0  0  0  0  0  0  0  0  0  0  0  0
   -5.1794   -2.7629    7.5864 C   0  0  0  0  0  0  0  0  0  0  0  0
   -4.4252   -3.5661    6.7815 C   0  0  0  0  0  0  0  0  0  0  0  0
   -4.0584   -2.9670    5.5536 C   0  0  0  0  0  0  0  0  0  0  0  0
   -3.2488   -3.5166    4.5431 C   0  0  0  0  0  0  0  0  0  0  0  0
   -2.6752   -4.8573    4.7128 C   0  0  0  0  0  0  0  0  0  0  0  0
   -2.8433   -5.8472    3.7471 C   0  0  0  0  0  0  0  0  0  0  0  0
   -2.4157   -7.1370    3.9840 C   0  0  0  0  0  0  0  0  0  0  0  0
   -1.7905   -7.4863    5.1787 C   0  0  0  0  0  0  0  0  0  0  0  0
   -1.3389   -9.1788    5.4224 S   0  0  0  0  0  0  0  0  0  0  0  0
   -1.8316   -9.4889    7.1602 C   0  0  0  0  0  0  0  0  0  0  0  0
   -3.2999   -9.2045    7.4017 C   0  0  0  0  0  0  0  0  0  0  0  0
   -1.5470   -6.4663    6.0943 C   0  0  0  0  0  0  0  0  0  0  0  0
   -0.8731   -6.7107    7.2389 F   0  0  0  0  0  0  0  0  0  0  0  0
   -1.9916   -5.1782    5.8825 C   0  0  0  0  0  0  0  0  0  0  0  0
   -3.0440   -2.7329    3.4202 C   0  0  0  0  0  0  0  0  0  0  0  0
   -3.5922   -1.4324    3.2880 C   0  0  0  0  0  0  0  0  0  0  0  0
   -4.3841   -0.8750    4.3065 C   0  0  0  0  0  0  0  0  0  0  0  0
   -4.9171    0.4858    4.1622 C   0  0  0  0  0  0  0  0  0  0  0  0
   -4.0751    1.5442    3.8206 C   0  0  0  0  0  0  0  0  0  0  0  0
   -4.5861    2.8031    3.5906 C   0  0  0  0  0  0  0  0  0  0  0  0
   -5.9504    3.0580    3.7028 C   0  0  0  0  0  0  0  0  0  0  0  0
   -6.5117    4.7033    3.3614 S   0  0  0  0  0  0  0  0  0  0  0  0
   -7.9944    4.4264    2.3210 C   0  0  0  0  0  0  0  0  0  0  0  0
   -7.6740    3.6248    1.0755 C   0  0  0  0  0  0  0  0  0  0  0  0
   -6.7696    2.0105    4.1117 C   0  0  0  0  0  0  0  0  0  0  0  0
   -6.2739    0.7398    4.3281 C   0  0  0  0  0  0  0  0  0  0  0  0
   -8.0931    2.2036    4.2939 F   0  0  0  0  0  0  0  0  0  0  0  0
   -4.6101   -1.6682    5.4191 C   0  0  0  0  0  0  0  0  0  0  0  0
   -5.5224   -1.2180    6.8380 S   0  0  0  0  0  0  0  0  0  0  0  0
   -3.2263   -0.8331    2.0601 C   0  0  0  0  0  0  0  0  0  0  0  0
   -2.3963   -1.5996    1.2973 C   0  0  0  0  0  0  0  0  0  0  0  0
   -2.0546   -3.1494    2.0407 S   0  0  0  0  0  0  0  0  0  0  0  0
   -1.7997   -1.1924    0.0685 C   0  0  0  0  0  0  0  0  0  0  0  0
   -0.9010   -1.8382   -0.7259 C   0  0  0  0  0  0  0  0  0  0  0  0
   -0.4511   -1.0569   -1.8236 C   0  0  0  0  0  0  0  0  0  0  0  0
    0.5253   -1.3791   -2.7818 C   0  0  0  0  0  0  0  0  0  0  0  0
    1.0966   -2.7261   -2.8792 C   0  0  0  0  0  0  0  0  0  0  0  0
    0.2649   -3.8459   -2.9024 C   0  0  0  0  0  0  0  0  0  0  0  0
    0.7896   -5.1066   -3.0858 C   0  0  0  0  0  0  0  0  0  0  0  0
    2.1606   -5.3071   -3.2366 C   0  0  0  0  0  0  0  0  0  0  0  0
    2.7193   -6.9679   -3.4690 S   0  0  0  0  0  0  0  0  0  0  0  0
    4.0601   -6.8130   -4.7067 C   0  0  0  0  0  0  0  0  0  0  0  0
    3.5874   -6.1392   -5.9793 C   0  0  0  0  0  0  0  0  0  0  0  0
    2.9826   -4.1869   -3.1560 C   0  0  0  0  0  0  0  0  0  0  0  0
    4.3253   -4.3076   -3.2289 F   0  0  0  0  0  0  0  0  0  0  0  0
    2.4693   -2.9157   -2.9994 C   0  0  0  0  0  0  0  0  0  0  0  0
    0.8981   -0.3661   -3.6550 C   0  0  0  0  0  0  0  0  0  0  0  0
    0.3083    0.9236   -3.6520 C   0  0  0  0  0  0  0  0  0  0  0  0
   -0.7028    1.2298   -2.7280 C   0  0  0  0  0  0  0  0  0  0  0  0
   -1.3432    2.5484   -2.6510 C   0  0  0  0  0  0  0  0  0  0  0  0
   -0.5921    3.7201   -2.5713 C   0  0  0  0  0  0  0  0  0  0  0  0
   -1.2113    4.9409   -2.4045 C   0  0  0  0  0  0  0  0  0  0  0  0
   -2.5980    5.0442   -2.3210 C   0  0  0  0  0  0  0  0  0  0  0  0
   -3.2983    6.6545   -2.0958 S   0  0  0  0  0  0  0  0  0  0  0  0
   -4.6118    6.3818   -0.8477 C   0  0  0  0  0  0  0  0  0  0  0  0
   -4.0857    5.7105    0.4045 C   0  0  0  0  0  0  0  0  0  0  0  0
   -3.3372    3.8727   -2.4492 C   0  0  0  0  0  0  0  0  0  0  0  0
   -2.7305    2.6427   -2.5961 C   0  0  0  0  0  0  0  0  0  0  0  0
   -4.6877    3.9041   -2.4287 F   0  0  0  0  0  0  0  0  0  0  0  0
   -1.0464    0.2282   -1.8342 C   0  0  0  0  0  0  0  0  0  0  0  0
   -2.1732    0.4182   -0.5209 S   0  0  0  0  0  0  0  0  0  0  0  0
    0.8529    1.7600   -4.6560 C   0  0  0  0  0  0  0  0  0  0  0  0
    1.8382    1.1636   -5.3886 C   0  0  0  0  0  0  0  0  0  0  0  0
    2.1111   -0.4943   -4.9017 S   0  0  0  0  0  0  0  0  0  0  0  0
    2.6448    1.7680   -6.3995 C   0  0  0  0  0  0  0  0  0  0  0  0
    2.6384    3.0799   -6.7751 C   0  0  0  0  0  0  0  0  0  0  0  0
    3.6033    3.3944   -7.7628 C   0  0  0  0  0  0  0  0  0  0  0  0
    3.8640    4.6487   -8.3433 C   0  0  0  0  0  0  0  0  0  0  0  0
    3.0507    5.8174   -7.9889 C   0  0  0  0  0  0  0  0  0  0  0  0
    1.6592    5.7504   -8.0130 C   0  0  0  0  0  0  0  0  0  0  0  0
    0.8849    6.8241   -7.6210 C   0  0  0  0  0  0  0  0  0  0  0  0
    1.4738    8.0051   -7.1822 C   0  0  0  0  0  0  0  0  0  0  0  0
    0.5859    9.4260   -6.6354 S   0  0  0  0  0  0  0  0  0  0  0  0
   -1.0006    8.7363   -6.0432 C   0  0  0  0  0  0  0  0  0  0  0  0
   -0.8178    7.8226   -4.8473 C   0  0  0  0  0  0  0  0  0  0  0  0
    2.8676    8.0734   -7.2037 C   0  0  0  0  0  0  0  0  0  0  0  0
    3.4754    9.2083   -6.8080 F   0  0  0  0  0  0  0  0  0  0  0  0
    3.6517    7.0106   -7.5944 C   0  0  0  0  0  0  0  0  0  0  0  0
    4.9272    4.7106   -9.2295 C   0  0  0  0  0  0  0  0  0  0  0  0
    5.7093    3.5810   -9.5817 C   0  0  0  0  0  0  0  0  0  0  0  0
    5.4300    2.3234   -9.0227 C   0  0  0  0  0  0  0  0  0  0  0  0
    6.2116    1.1318   -9.3775 C   0  0  0  0  0  0  0  0  0  0  0  0
    6.4024    0.7632  -10.7082 C   0  0  0  0  0  0  0  0  0  0  0  0
    7.1081   -0.3774  -11.0256 C   0  0  0  0  0  0  0  0  0  0  0  0
    7.6681   -1.1843  -10.0364 C   0  0  0  0  0  0  0  0  0  0  0  0
    8.5797   -2.6029  -10.5715 S   0  0  0  0  0  0  0  0  0  0  0  0
    8.2209   -3.8890   -9.3208 C   0  0  0  0  0  0  0  0  0  0  0  0
    6.7363   -4.1612   -9.1879 C   0  0  0  0  0  0  0  0  0  0  0  0
    7.5025   -0.7825   -8.7147 C   0  0  0  0  0  0  0  0  0  0  0  0
    6.7722    0.3399   -8.3813 C   0  0  0  0  0  0  0  0  0  0  0  0
    8.0609   -1.4808   -7.7026 F   0  0  0  0  0  0  0  0  0  0  0  0
    4.3873    2.2672   -8.1112 C   0  0  0  0  0  0  0  0  0  0  0  0
    3.8577    0.8412   -7.2576 S   0  0  0  0  0  0  0  0  0  0  0  0
    6.7573    3.9217  -10.4718 C   0  0  0  0  0  0  0  0  0  0  0  0
    6.7761    5.2412  -10.8168 C   0  0  0  0  0  0  0  0  0  0  0  0
    5.4779    6.1440  -10.0603 S   0  0  0  0  0  0  0  0  0  0  0  0
    7.7225    5.9028  -11.6491 C   0  0  0  0  0  0  0  0  0  0  0  0
    9.0490    4.9996  -12.3295 S   0  0  0  0  0  0  0  0  0  0  0  0
    9.7035    6.4435  -13.0406 C   0  0  0  0  0  0  0  0  0  0  0  0
    8.9160    7.5343  -12.7872 C   0  0  0  0  0  0  0  0  0  0  0  0
    7.7988    7.2278  -11.9975 C   0  0  0  0  0  0  0  0  0  0  0  0
   11.1596    6.4501  -14.0089 S   0  0  0  0  0  0  0  0  0  0  0  0
   11.8857    4.9341  -13.5341 C   0  0  0  0  0  0  0  0  0  0  0  0
   12.8986    4.3509  -14.1856 C   0  0  0  0  0  0  0  0  0  0  0  0
   13.4626    3.1005  -13.7831 C   0  0  0  0  0  0  0  0  0  0  0  0
   12.8303    2.2166  -12.4184 S   0  0  0  0  0  0  0  0  0  0  0  0
   13.9368    0.9075  -12.7150 C   0  0  0  0  0  0  0  0  0  0  0  0
   14.7598    1.1735  -13.7720 C   0  0  0  0  0  0  0  0  0  0  0  0
   14.4887    2.4099  -14.3787 C   0  0  0  0  0  0  0  0  0  0  0  0
   14.0566   -0.4770  -11.6493 S   0  0  0  0  0  0  0  0  0  0  0  0
   12.4097   -1.0991  -11.5529 C   0  0  0  0  0  0  0  0  0  0  0  0
   11.3883   -0.7947  -12.3308 C   0  0  0  0  0  0  0  0  0  0  0  0
   -7.5010   -5.4769   16.3404 H   0  0  0  0  0  0  0  0  0  0  0  0
   -8.3465   -3.3726   15.0668 H   0  0  0  0  0  0  0  0  0  0  0  0
   -6.8382   -0.3931   12.0627 H   0  0  0  0  0  0  0  0  0  0  0  0
   -8.3411    1.4703   12.4447 H   0  0  0  0  0  0  0  0  0  0  0  0
   -9.5152    3.1816   12.9273 H   0  0  0  0  0  0  0  0  0  0  0  0
  -11.1741    3.7943   12.9044 H   0  0  0  0  0  0  0  0  0  0  0  0
  -11.5955    2.7048   10.7167 H   0  0  0  0  0  0  0  0  0  0  0  0
  -10.2085    3.7934   10.5888 H   0  0  0  0  0  0  0  0  0  0  0  0
   -9.9588    2.0469   10.6955 H   0  0  0  0  0  0  0  0  0  0  0  0
   -9.9222   -3.1344   13.2156 H   0  0  0  0  0  0  0  0  0  0  0  0
   -5.9167   -7.9231   12.1059 H   0  0  0  0  0  0  0  0  0  0  0  0
   -4.2568   -9.6809   11.6689 H   0  0  0  0  0  0  0  0  0  0  0  0
    0.5295  -10.0241   11.6898 H   0  0  0  0  0  0  0  0  0  0  0  0
    0.0254   -8.3351   11.8741 H   0  0  0  0  0  0  0  0  0  0  0  0
    0.4259   -7.9751    9.4115 H   0  0  0  0  0  0  0  0  0  0  0  0
    0.8961   -9.6745    9.2518 H   0  0  0  0  0  0  0  0  0  0  0  0
    1.8863   -8.5617   10.2030 H   0  0  0  0  0  0  0  0  0  0  0  0
   -2.9624   -4.9697   11.1641 H   0  0  0  0  0  0  0  0  0  0  0  0
   -4.5331   -4.9202    9.2423 H   0  0  0  0  0  0  0  0  0  0  0  0
   -4.1494   -4.5682    7.0497 H   0  0  0  0  0  0  0  0  0  0  0  0
   -3.3523   -5.6134    2.8249 H   0  0  0  0  0  0  0  0  0  0  0  0
   -2.5791   -7.9096    3.2492 H   0  0  0  0  0  0  0  0  0  0  0  0
   -1.1937   -8.9048    7.8175 H   0  0  0  0  0  0  0  0  0  0  0  0
   -1.6108  -10.5462    7.3017 H   0  0  0  0  0  0  0  0  0  0  0  0
   -3.9213   -9.7833    6.7218 H   0  0  0  0  0  0  0  0  0  0  0  0
   -3.5555   -9.4722    8.4252 H   0  0  0  0  0  0  0  0  0  0  0  0
   -3.5220   -8.1482    7.2571 H   0  0  0  0  0  0  0  0  0  0  0  0
   -1.7788   -4.4259    6.6267 H   0  0  0  0  0  0  0  0  0  0  0  0
   -3.0124    1.3750    3.7372 H   0  0  0  0  0  0  0  0  0  0  0  0
   -3.9348    3.6153    3.3069 H   0  0  0  0  0  0  0  0  0  0  0  0
   -8.7631    3.9500    2.9255 H   0  0  0  0  0  0  0  0  0  0  0  0
   -8.3170    5.4365    2.0686 H   0  0  0  0  0  0  0  0  0  0  0  0
   -8.5666    3.5351    0.4599 H   0  0  0  0  0  0  0  0  0  0  0  0
   -7.3343    2.6237    1.3351 H   0  0  0  0  0  0  0  0  0  0  0  0
   -6.8957    4.1114    0.4917 H   0  0  0  0  0  0  0  0  0  0  0  0
   -6.9585   -0.0444    4.6113 H   0  0  0  0  0  0  0  0  0  0  0  0
   -3.5633    0.1387    1.7469 H   0  0  0  0  0  0  0  0  0  0  0  0
   -0.5380   -2.8268   -0.5076 H   0  0  0  0  0  0  0  0  0  0  0  0
   -0.8035   -3.7185   -2.8183 H   0  0  0  0  0  0  0  0  0  0  0  0
    0.1408   -5.9675   -3.1277 H   0  0  0  0  0  0  0  0  0  0  0  0
    4.3442   -7.8488   -4.8929 H   0  0  0  0  0  0  0  0  0  0  0  0
    4.9010   -6.2902   -4.2565 H   0  0  0  0  0  0  0  0  0  0  0  0
    2.7238   -6.6589   -6.3900 H   0  0  0  0  0  0  0  0  0  0  0  0
    4.3864   -6.1522   -6.7180 H   0  0  0  0  0  0  0  0  0  0  0  0
    3.3113   -5.1030   -5.7930 H   0  0  0  0  0  0  0  0  0  0  0  0
    3.1570   -2.0868   -2.9423 H   0  0  0  0  0  0  0  0  0  0  0  0
    0.4855    3.6664   -2.5940 H   0  0  0  0  0  0  0  0  0  0  0  0
   -0.6262    5.8431   -2.3186 H   0  0  0  0  0  0  0  0  0  0  0  0
   -4.9605    7.3924   -0.6348 H   0  0  0  0  0  0  0  0  0  0  0  0
   -5.4202    5.8175   -1.3087 H   0  0  0  0  0  0  0  0  0  0  0  0
   -3.7697    4.6888    0.1976 H   0  0  0  0  0  0  0  0  0  0  0  0
   -4.8662    5.6834    1.1627 H   0  0  0  0  0  0  0  0  0  0  0  0
   -3.2362    6.2609    0.8037 H   0  0  0  0  0  0  0  0  0  0  0  0
   -3.3535    1.7668   -2.6888 H   0  0  0  0  0  0  0  0  0  0  0  0
    0.5179    2.7661   -4.8267 H   0  0  0  0  0  0  0  0  0  0  0  0
    1.9867    3.8126   -6.3369 H   0  0  0  0  0  0  0  0  0  0  0  0
    1.1762    4.8509   -8.3643 H   0  0  0  0  0  0  0  0  0  0  0  0
   -0.1892    6.7381   -7.6629 H   0  0  0  0  0  0  0  0  0  0  0  0
   -1.5044    8.2412   -6.8722 H   0  0  0  0  0  0  0  0  0  0  0  0
   -1.5723    9.6226   -5.7698 H   0  0  0  0  0  0  0  0  0  0  0  0
   -0.3040    8.3522   -4.0486 H   0  0  0  0  0  0  0  0  0  0  0  0
   -1.7872    7.4960   -4.4758 H   0  0  0  0  0  0  0  0  0  0  0  0
   -0.2321    6.9444   -5.1130 H   0  0  0  0  0  0  0  0  0  0  0  0
    4.7246    7.1110   -7.5568 H   0  0  0  0  0  0  0  0  0  0  0  0
    5.9643    1.3582  -11.4950 H   0  0  0  0  0  0  0  0  0  0  0  0
    7.2360   -0.6701  -12.0562 H   0  0  0  0  0  0  0  0  0  0  0  0
    8.7474   -4.7612   -9.7093 H   0  0  0  0  0  0  0  0  0  0  0  0
    8.6690   -3.5971   -8.3737 H   0  0  0  0  0  0  0  0  0  0  0  0
    6.2119   -3.2886   -8.8030 H   0  0  0  0  0  0  0  0  0  0  0  0
    6.5796   -4.9867   -8.4963 H   0  0  0  0  0  0  0  0  0  0  0  0
    6.3074   -4.4258  -10.1525 H   0  0  0  0  0  0  0  0  0  0  0  0
    6.6778    0.6028   -7.3394 H   0  0  0  0  0  0  0  0  0  0  0  0
    7.4899    3.2175  -10.8249 H   0  0  0  0  0  0  0  0  0  0  0  0
    9.1500    8.5182  -13.1495 H   0  0  0  0  0  0  0  0  0  0  0  0
    7.0727    7.9533  -11.6763 H   0  0  0  0  0  0  0  0  0  0  0  0
   11.4559    4.4874  -12.6506 H   0  0  0  0  0  0  0  0  0  0  0  0
   13.3267    4.8116  -15.0647 H   0  0  0  0  0  0  0  0  0  0  0  0
   15.5215    0.4905  -14.1012 H   0  0  0  0  0  0  0  0  0  0  0  0
   15.0207    2.7802  -15.2367 H   0  0  0  0  0  0  0  0  0  0  0  0
   12.3397   -1.8197  -10.7535 H   0  0  0  0  0  0  0  0  0  0  0  0
   11.4596   -0.0876  -13.1391 H   0  0  0  0  0  0  0  0  0  0  0  0
   10.4290   -1.2543  -12.1689 H   0  0  0  0  0  0  0  0  0  0  0  0
  1  2  2  0  0  0  0
  2  3  1  0  0  0  0
  3  4  2  0  0  0  0
  4  5  1  0  0  0  0
  5  6  2  0  0  0  0
  6  7  1  0  0  0  0
  7  8  2  0  0  0  0
  8  9  1  0  0  0  0
  9 10  1  0  0  0  0
 10 11  1  0  0  0  0
  8 12  1  0  0  0  0
 12 13  1  0  0  0  0
 12 14  2  0  0  0  0
  4 15  1  0  0  0  0
 15 16  2  0  0  0  0
 16 17  1  0  0  0  0
 17 18  1  0  0  0  0
 18 19  2  0  0  0  0
 19 20  1  0  0  0  0
 20 21  2  0  0  0  0
 21 22  1  0  0  0  0
 22 23  1  0  0  0  0
 23 24  1  0  0  0  0
 21 25  1  0  0  0  0
 25 26  2  0  0  0  0
 25 27  1  0  0  0  0
 17 28  2  0  0  0  0
 28 29  1  0  0  0  0
 16 30  1  0  0  0  0
 30 31  2  0  0  0  0
 31 32  1  0  0  0  0
 31 33  1  0  0  0  0
 33 34  2  0  0  0  0
 34 35  1  0  0  0  0
 35 36  2  0  0  0  0
 36 37  1  0  0  0  0
 37 38  2  0  0  0  0
 38 39  1  0  0  0  0
 39 40  2  0  0  0  0
 40 41  1  0  0  0  0
 41 42  1  0  0  0  0
 42 43  1  0  0  0  0
 40 44  1  0  0  0  0
 44 45  1  0  0  0  0
 44 46  2  0  0  0  0
 36 47  1  0  0  0  0
 47 48  2  0  0  0  0
 48 49  1  0  0  0  0
 49 50  1  0  0  0  0
 50 51  2  0  0  0  0
 51 52  1  0  0  0  0
 52 53  2  0  0  0  0
 53 54  1  0  0  0  0
 54 55  1  0  0  0  0
 55 56  1  0  0  0  0
 53 57  1  0  0  0  0
 57 58  2  0  0  0  0
 57 59  1  0  0  0  0
 49 60  2  0  0  0  0
 60 61  1  0  0  0  0
 48 62  1  0  0  0  0
 62 63  2  0  0  0  0
 63 64  1  0  0  0  0
 63 65  1  0  0  0  0
 65 66  2  0  0  0  0
 66 67  1  0  0  0  0
 67 68  2  0  0  0  0
 68 69  1  0  0  0  0
 69 70  2  0  0  0  0
 70 71  1  0  0  0  0
 71 72  2  0  0  0  0
 72 73  1  0  0  0  0
 73 74  1  0  0  0  0
 74 75  1  0  0  0  0
 72 76  1  0  0  0  0
 76 77  1  0  0  0  0
 76 78  2  0  0  0  0
 68 79  1  0  0  0  0
 79 80  2  0  0  0  0
 80 81  1  0  0  0  0
 81 82  1  0  0  0  0
 82 83  2  0  0  0  0
 83 84  1  0  0  0  0
 84 85  2  0  0  0  0
 85 86  1  0  0  0  0
 86 87  1  0  0  0  0
 87 88  1  0  0  0  0
 85 89  1  0  0  0  0
 89 90  2  0  0  0  0
 89 91  1  0  0  0  0
 81 92  2  0  0  0  0
 92 93  1  0  0  0  0
 80 94  1  0  0  0  0
 94 95  2  0  0  0  0
 95 96  1  0  0  0  0
 95 97  1  0  0  0  0
 97 98  2  0  0  0  0
 98 99  1  0  0  0  0
 99100  2  0  0  0  0
100101  1  0  0  0  0
101102  2  0  0  0  0
102103  1  0  0  0  0
103104  2  0  0  0  0
104105  1  0  0  0  0
105106  1  0  0  0  0
106107  1  0  0  0  0
104108  1  0  0  0  0
108109  1  0  0  0  0
108110  2  0  0  0  0
100111  1  0  0  0  0
111112  2  0  0  0  0
112113  1  0  0  0  0
113114  1  0  0  0  0
114115  2  0  0  0  0
115116  1  0  0  0  0
116117  2  0  0  0  0
117118  1  0  0  0  0
118119  1  0  0  0  0
119120  1  0  0  0  0
117121  1  0  0  0  0
121122  2  0  0  0  0
121123  1  0  0  0  0
113124  2  0  0  0  0
124125  1  0  0  0  0
112126  1  0  0  0  0
126127  2  0  0  0  0
127128  1  0  0  0  0
127129  1  0  0  0  0
129130  1  0  0  0  0
130131  1  0  0  0  0
131132  2  0  0  0  0
132133  1  0  0  0  0
131134  1  0  0  0  0
134135  1  0  0  0  0
135136  2  0  0  0  0
136137  1  0  0  0  0
137138  1  0  0  0  0
138139  1  0  0  0  0
139140  2  0  0  0  0
140141  1  0  0  0  0
139142  1  0  0  0  0
142143  1  0  0  0  0
143144  2  0  0  0  0
 29  1  1  0  0  0  0
 61 33  1  0  0  0  0
 93 65  1  0  0  0  0
125 97  1  0  0  0  0
133129  2  0  0  0  0
141137  2  0  0  0  0
 28  3  1  0  0  0  0
 60 35  1  0  0  0  0
 92 67  1  0  0  0  0
124 99  1  0  0  0  0
 14  5  1  0  0  0  0
 32 15  1  0  0  0  0
 46 37  1  0  0  0  0
 64 47  1  0  0  0  0
 78 69  1  0  0  0  0
 96 79  1  0  0  0  0
110101  1  0  0  0  0
128111  1  0  0  0  0
 26 18  1  0  0  0  0
 58 50  1  0  0  0  0
 90 82  1  0  0  0  0
122114  1  0  0  0  0
  1145  1  0  0  0  0
  2146  1  0  0  0  0
  6147  1  0  0  0  0
  7148  1  0  0  0  0
 10149  1  0  0  0  0
 10150  1  0  0  0  0
 11151  1  0  0  0  0
 11152  1  0  0  0  0
 11153  1  0  0  0  0
 14154  1  0  0  0  0
 19155  1  0  0  0  0
 20156  1  0  0  0  0
 23157  1  0  0  0  0
 23158  1  0  0  0  0
 24159  1  0  0  0  0
 24160  1  0  0  0  0
 24161  1  0  0  0  0
 26162  1  0  0  0  0
 30163  1  0  0  0  0
 34164  1  0  0  0  0
 38165  1  0  0  0  0
 39166  1  0  0  0  0
 42167  1  0  0  0  0
 42168  1  0  0  0  0
 43169  1  0  0  0  0
 43170  1  0  0  0  0
 43171  1  0  0  0  0
 46172  1  0  0  0  0
 51173  1  0  0  0  0
 52174  1  0  0  0  0
 55175  1  0  0  0  0
 55176  1  0  0  0  0
 56177  1  0  0  0  0
 56178  1  0  0  0  0
 56179  1  0  0  0  0
 58180  1  0  0  0  0
 62181  1  0  0  0  0
 66182  1  0  0  0  0
 70183  1  0  0  0  0
 71184  1  0  0  0  0
 74185  1  0  0  0  0
 74186  1  0  0  0  0
 75187  1  0  0  0  0
 75188  1  0  0  0  0
 75189  1  0  0  0  0
 78190  1  0  0  0  0
 83191  1  0  0  0  0
 84192  1  0  0  0  0
 87193  1  0  0  0  0
 87194  1  0  0  0  0
 88195  1  0  0  0  0
 88196  1  0  0  0  0
 88197  1  0  0  0  0
 90198  1  0  0  0  0
 94199  1  0  0  0  0
 98200  1  0  0  0  0
102201  1  0  0  0  0
103202  1  0  0  0  0
106203  1  0  0  0  0
106204  1  0  0  0  0
107205  1  0  0  0  0
107206  1  0  0  0  0
107207  1  0  0  0  0
110208  1  0  0  0  0
115209  1  0  0  0  0
116210  1  0  0  0  0
119211  1  0  0  0  0
119212  1  0  0  0  0
120213  1  0  0  0  0
120214  1  0  0  0  0
120215  1  0  0  0  0
122216  1  0  0  0  0
126217  1  0  0  0  0
132218  1  0  0  0  0
133219  1  0  0  0  0
135220  1  0  0  0  0
136221  1  0  0  0  0
140222  1  0  0  0  0
141223  1  0  0  0  0
143224  1  0  0  0  0
144225  1  0  0  0  0
144226  1  0  0  0  0
M  END
