
  xtb     03042203443D
 energy: -397.798336357493 gnorm: 0.000304828053 xtb: 6.4.1 (unknown)
224247  0     0  0            999 V2000
   11.5308   -0.8963    0.8107 C   0  0  0  0  0  0  0  0  0  0  0  0
   11.0652   -1.3913   -0.4214 C   0  0  0  0  0  0  0  0  0  0  0  0
   11.5695   -2.2894   -1.2474 N   0  0  0  0  0  0  0  0  0  0  0  0
   10.7284   -2.3632   -2.2725 O   0  0  0  0  0  0  0  0  0  0  0  0
    9.6859   -1.5457   -2.1557 N   0  0  0  0  0  0  0  0  0  0  0  0
    9.8380   -0.9068   -1.0111 C   0  0  0  0  0  0  0  0  0  0  0  0
    9.0474    0.0706   -0.3441 C   0  0  0  0  0  0  0  0  0  0  0  0
    9.5533    0.5247    0.8547 C   0  0  0  0  0  0  0  0  0  0  0  0
   10.7643    0.0586    1.4118 C   0  0  0  0  0  0  0  0  0  0  0  0
    7.7968    0.5516   -0.8994 C   0  0  0  0  0  0  0  0  0  0  0  0
    6.8442    1.2547   -0.1124 C   0  0  0  0  0  0  0  0  0  0  0  0
    6.8038    1.5552    1.1718 N   0  0  0  0  0  0  0  0  0  0  0  0
    5.6418    2.1767    1.3794 O   0  0  0  0  0  0  0  0  0  0  0  0
    4.9149    2.3006    0.2733 N   0  0  0  0  0  0  0  0  0  0  0  0
    5.6163    1.7458   -0.6937 C   0  0  0  0  0  0  0  0  0  0  0  0
    5.3112    1.5482   -2.0642 C   0  0  0  0  0  0  0  0  0  0  0  0
    6.2538    0.8449   -2.7846 C   0  0  0  0  0  0  0  0  0  0  0  0
    7.4448    0.3619   -2.2211 C   0  0  0  0  0  0  0  0  0  0  0  0
    4.0521    1.9698   -2.6215 C   0  0  0  0  0  0  0  0  0  0  0  0
    3.3620    1.3072   -3.5921 C   0  0  0  0  0  0  0  0  0  0  0  0
    2.0789    1.8475   -3.8420 C   0  0  0  0  0  0  0  0  0  0  0  0
    1.0548    1.2659   -4.6076 C   0  0  0  0  0  0  0  0  0  0  0  0
    1.2392   -0.0611   -5.2138 C   0  0  0  0  0  0  0  0  0  0  0  0
    0.4204   -1.1092   -4.8024 C   0  0  0  0  0  0  0  0  0  0  0  0
    0.6076   -2.3947   -5.2685 C   0  0  0  0  0  0  0  0  0  0  0  0
    1.6189   -2.6756   -6.1801 C   0  0  0  0  0  0  0  0  0  0  0  0
    1.9803   -4.2703   -6.8325 S   0  0  0  0  0  0  0  0  0  0  0  0
    0.6026   -5.3173   -6.2521 C   0  0  0  0  0  0  0  0  0  0  0  0
   -0.6920   -5.0349   -6.9882 C   0  0  0  0  0  0  0  0  0  0  0  0
    2.4292   -1.6138   -6.5886 C   0  0  0  0  0  0  0  0  0  0  0  0
    3.4221   -1.8521   -7.4702 F   0  0  0  0  0  0  0  0  0  0  0  0
    2.2610   -0.3298   -6.1196 C   0  0  0  0  0  0  0  0  0  0  0  0
   -0.1718    1.9034   -4.5770 C   0  0  0  0  0  0  0  0  0  0  0  0
   -0.4288    3.0721   -3.8151 C   0  0  0  0  0  0  0  0  0  0  0  0
    0.5913    3.6355   -3.0291 C   0  0  0  0  0  0  0  0  0  0  0  0
    0.3326    4.7729   -2.1367 C   0  0  0  0  0  0  0  0  0  0  0  0
   -0.7207    4.7422   -1.2265 C   0  0  0  0  0  0  0  0  0  0  0  0
   -0.9757    5.8122   -0.3919 C   0  0  0  0  0  0  0  0  0  0  0  0
   -0.1910    6.9584   -0.4446 C   0  0  0  0  0  0  0  0  0  0  0  0
   -0.4207    8.3883    0.5597 S   0  0  0  0  0  0  0  0  0  0  0  0
   -2.1596    8.2622    1.1077 C   0  0  0  0  0  0  0  0  0  0  0  0
   -3.1357    8.4215   -0.0422 C   0  0  0  0  0  0  0  0  0  0  0  0
    0.8819    6.9621   -1.3378 C   0  0  0  0  0  0  0  0  0  0  0  0
    1.1530    5.8977   -2.1685 C   0  0  0  0  0  0  0  0  0  0  0  0
    1.6759    8.0484   -1.4013 F   0  0  0  0  0  0  0  0  0  0  0  0
    1.8273    3.0028   -3.0600 C   0  0  0  0  0  0  0  0  0  0  0  0
    3.1794    3.3586   -2.0116 S   0  0  0  0  0  0  0  0  0  0  0  0
   -1.8053    3.4187   -3.8356 C   0  0  0  0  0  0  0  0  0  0  0  0
   -2.5852    2.5335   -4.5221 C   0  0  0  0  0  0  0  0  0  0  0  0
   -1.6229    1.3063   -5.3392 S   0  0  0  0  0  0  0  0  0  0  0  0
   -3.9682    2.2533   -4.3026 C   0  0  0  0  0  0  0  0  0  0  0  0
   -4.5958    1.0987   -4.6708 C   0  0  0  0  0  0  0  0  0  0  0  0
   -5.6392    0.7159   -3.7909 C   0  0  0  0  0  0  0  0  0  0  0  0
   -6.1102   -0.5975   -3.6338 C   0  0  0  0  0  0  0  0  0  0  0  0
   -5.7207   -1.6416   -4.5979 C   0  0  0  0  0  0  0  0  0  0  0  0
   -6.1726   -1.6391   -5.9114 C   0  0  0  0  0  0  0  0  0  0  0  0
   -5.7701   -2.6164   -6.8034 C   0  0  0  0  0  0  0  0  0  0  0  0
   -4.8833   -3.6140   -6.4153 C   0  0  0  0  0  0  0  0  0  0  0  0
   -4.3223   -4.9292   -7.4492 S   0  0  0  0  0  0  0  0  0  0  0  0
   -4.4926   -4.2603   -9.1376 C   0  0  0  0  0  0  0  0  0  0  0  0
   -3.5587   -3.0918   -9.3840 C   0  0  0  0  0  0  0  0  0  0  0  0
   -4.4281   -3.5928   -5.0972 C   0  0  0  0  0  0  0  0  0  0  0  0
   -3.5560   -4.5333   -4.6847 F   0  0  0  0  0  0  0  0  0  0  0  0
   -4.8307   -2.6347   -4.1961 C   0  0  0  0  0  0  0  0  0  0  0  0
   -6.6764   -0.9049   -2.4115 C   0  0  0  0  0  0  0  0  0  0  0  0
   -6.8657    0.0462   -1.3755 C   0  0  0  0  0  0  0  0  0  0  0  0
   -6.4953    1.3858   -1.5802 C   0  0  0  0  0  0  0  0  0  0  0  0
   -6.5113    2.3782   -0.4914 C   0  0  0  0  0  0  0  0  0  0  0  0
   -5.7671    2.1706    0.6694 C   0  0  0  0  0  0  0  0  0  0  0  0
   -5.7313    3.1267    1.6600 C   0  0  0  0  0  0  0  0  0  0  0  0
   -6.4402    4.3222    1.5407 C   0  0  0  0  0  0  0  0  0  0  0  0
   -6.3290    5.4522    2.8923 S   0  0  0  0  0  0  0  0  0  0  0  0
   -6.5260    7.1051    2.1151 C   0  0  0  0  0  0  0  0  0  0  0  0
   -5.8713    8.1453    3.0028 C   0  0  0  0  0  0  0  0  0  0  0  0
   -7.1934    4.5061    0.3852 C   0  0  0  0  0  0  0  0  0  0  0  0
   -7.2168    3.5658   -0.6270 C   0  0  0  0  0  0  0  0  0  0  0  0
   -7.9396    5.6200    0.2111 F   0  0  0  0  0  0  0  0  0  0  0  0
   -5.8568    1.6772   -2.7746 C   0  0  0  0  0  0  0  0  0  0  0  0
   -4.8378    3.0831   -3.0122 S   0  0  0  0  0  0  0  0  0  0  0  0
   -7.0666   -0.5796   -0.1169 C   0  0  0  0  0  0  0  0  0  0  0  0
   -6.9017   -1.9365   -0.1599 C   0  0  0  0  0  0  0  0  0  0  0  0
   -6.8806   -2.5371   -1.8160 S   0  0  0  0  0  0  0  0  0  0  0  0
   -6.2103   -2.6847    0.8451 C   0  0  0  0  0  0  0  0  0  0  0  0
   -5.2464   -3.6051    0.5437 C   0  0  0  0  0  0  0  0  0  0  0  0
   -4.1875   -3.6488    1.4852 C   0  0  0  0  0  0  0  0  0  0  0  0
   -2.8961   -4.1437    1.2413 C   0  0  0  0  0  0  0  0  0  0  0  0
   -2.5987   -4.8981    0.0155 C   0  0  0  0  0  0  0  0  0  0  0  0
   -3.3186   -6.0382   -0.3282 C   0  0  0  0  0  0  0  0  0  0  0  0
   -3.0439   -6.7383   -1.4883 C   0  0  0  0  0  0  0  0  0  0  0  0
   -2.0472   -6.3135   -2.3603 C   0  0  0  0  0  0  0  0  0  0  0  0
   -1.5601   -7.1175   -3.8460 S   0  0  0  0  0  0  0  0  0  0  0  0
   -2.8659   -8.3513   -4.1556 C   0  0  0  0  0  0  0  0  0  0  0  0
   -4.1672   -7.7174   -4.6068 C   0  0  0  0  0  0  0  0  0  0  0  0
   -1.3435   -5.1614   -2.0064 C   0  0  0  0  0  0  0  0  0  0  0  0
   -0.3743   -4.7081   -2.8319 F   0  0  0  0  0  0  0  0  0  0  0  0
   -1.5980   -4.4605   -0.8514 C   0  0  0  0  0  0  0  0  0  0  0  0
   -1.9065   -3.7445    2.1276 C   0  0  0  0  0  0  0  0  0  0  0  0
   -2.1511   -2.9356    3.2666 C   0  0  0  0  0  0  0  0  0  0  0  0
   -3.4455   -2.4397    3.5042 C   0  0  0  0  0  0  0  0  0  0  0  0
   -3.7413   -1.4138    4.5117 C   0  0  0  0  0  0  0  0  0  0  0  0
   -2.9691   -0.2557    4.5967 C   0  0  0  0  0  0  0  0  0  0  0  0
   -3.3419    0.7757    5.4317 C   0  0  0  0  0  0  0  0  0  0  0  0
   -4.4879    0.6915    6.2179 C   0  0  0  0  0  0  0  0  0  0  0  0
   -4.9017    2.0800    7.2359 S   0  0  0  0  0  0  0  0  0  0  0  0
   -6.6866    2.3049    6.8925 C   0  0  0  0  0  0  0  0  0  0  0  0
   -6.9536    2.5471    5.4203 C   0  0  0  0  0  0  0  0  0  0  0  0
   -5.2195   -0.4910    6.1635 C   0  0  0  0  0  0  0  0  0  0  0  0
   -4.8722   -1.5225    5.3148 C   0  0  0  0  0  0  0  0  0  0  0  0
   -6.3102   -0.6604    6.9394 F   0  0  0  0  0  0  0  0  0  0  0  0
   -4.4261   -2.7994    2.5921 C   0  0  0  0  0  0  0  0  0  0  0  0
   -5.9875   -2.0143    2.4563 S   0  0  0  0  0  0  0  0  0  0  0  0
   -0.9497   -2.6143    3.9547 C   0  0  0  0  0  0  0  0  0  0  0  0
    0.1696   -3.0743    3.3308 C   0  0  0  0  0  0  0  0  0  0  0  0
   -0.2030   -4.0475    1.9219 S   0  0  0  0  0  0  0  0  0  0  0  0
    1.5424   -2.7486    3.5768 C   0  0  0  0  0  0  0  0  0  0  0  0
    2.4991   -2.6318    2.6150 C   0  0  0  0  0  0  0  0  0  0  0  0
    3.7560   -2.2008    3.1094 C   0  0  0  0  0  0  0  0  0  0  0  0
    4.9230   -1.9383    2.3740 C   0  0  0  0  0  0  0  0  0  0  0  0
    4.8955   -1.9364    0.9060 C   0  0  0  0  0  0  0  0  0  0  0  0
    3.9007   -1.2239    0.2346 C   0  0  0  0  0  0  0  0  0  0  0  0
    3.8186   -1.2528   -1.1414 C   0  0  0  0  0  0  0  0  0  0  0  0
    4.7306   -1.9811   -1.8977 C   0  0  0  0  0  0  0  0  0  0  0  0
    4.5533   -2.0044   -3.6632 S   0  0  0  0  0  0  0  0  0  0  0  0
    4.5051   -3.7961   -4.0204 C   0  0  0  0  0  0  0  0  0  0  0  0
    3.3482   -4.4719   -3.3134 C   0  0  0  0  0  0  0  0  0  0  0  0
    5.7557   -2.6350   -1.2223 C   0  0  0  0  0  0  0  0  0  0  0  0
    6.6918   -3.3195   -1.9066 F   0  0  0  0  0  0  0  0  0  0  0  0
    5.8404   -2.6287    0.1563 C   0  0  0  0  0  0  0  0  0  0  0  0
    6.0610   -1.6423    3.1098 C   0  0  0  0  0  0  0  0  0  0  0  0
    6.0536   -1.5082    4.5196 C   0  0  0  0  0  0  0  0  0  0  0  0
    4.8664   -1.6888    5.2449 C   0  0  0  0  0  0  0  0  0  0  0  0
    4.8187   -1.4967    6.6999 C   0  0  0  0  0  0  0  0  0  0  0  0
    5.2841   -0.3204    7.2798 C   0  0  0  0  0  0  0  0  0  0  0  0
    5.2336   -0.1290    8.6471 C   0  0  0  0  0  0  0  0  0  0  0  0
    4.7164   -1.1108    9.4849 C   0  0  0  0  0  0  0  0  0  0  0  0
    4.6235   -1.0140   11.2415 S   0  0  0  0  0  0  0  0  0  0  0  0
    4.8493    0.7614   11.6049 C   0  0  0  0  0  0  0  0  0  0  0  0
    3.6598    1.5937   11.1657 C   0  0  0  0  0  0  0  0  0  0  0  0
    4.2608   -2.2885    8.8889 C   0  0  0  0  0  0  0  0  0  0  0  0
    4.2989   -2.4891    7.5277 C   0  0  0  0  0  0  0  0  0  0  0  0
    3.7687   -3.2689    9.6714 F   0  0  0  0  0  0  0  0  0  0  0  0
    3.7439   -2.0571    4.5175 C   0  0  0  0  0  0  0  0  0  0  0  0
    2.1487   -2.3515    5.1705 S   0  0  0  0  0  0  0  0  0  0  0  0
    7.3545   -1.2038    5.0209 C   0  0  0  0  0  0  0  0  0  0  0  0
    8.2808   -1.0988    4.0473 C   0  0  0  0  0  0  0  0  0  0  0  0
    7.6521   -1.3620    2.4580 S   0  0  0  0  0  0  0  0  0  0  0  0
   12.4509   -1.2660    1.2308 H   0  0  0  0  0  0  0  0  0  0  0  0
    8.9956    1.2711    1.3976 H   0  0  0  0  0  0  0  0  0  0  0  0
   11.0824    0.4845    2.3521 H   0  0  0  0  0  0  0  0  0  0  0  0
    6.0768    0.6566   -3.8316 H   0  0  0  0  0  0  0  0  0  0  0  0
    8.1205   -0.1866   -2.8580 H   0  0  0  0  0  0  0  0  0  0  0  0
    3.7222    0.4098   -4.0591 H   0  0  0  0  0  0  0  0  0  0  0  0
   -0.3596   -0.9241   -4.0792 H   0  0  0  0  0  0  0  0  0  0  0  0
   -0.0301   -3.1788   -4.8968 H   0  0  0  0  0  0  0  0  0  0  0  0
    0.9486   -6.3307   -6.4545 H   0  0  0  0  0  0  0  0  0  0  0  0
    0.5011   -5.1990   -5.1758 H   0  0  0  0  0  0  0  0  0  0  0  0
   -0.9856   -3.9932   -6.8777 H   0  0  0  0  0  0  0  0  0  0  0  0
   -0.5816   -5.2531   -8.0483 H   0  0  0  0  0  0  0  0  0  0  0  0
   -1.4839   -5.6583   -6.5799 H   0  0  0  0  0  0  0  0  0  0  0  0
    2.9169    0.4512   -6.4708 H   0  0  0  0  0  0  0  0  0  0  0  0
   -1.3346    3.8573   -1.1483 H   0  0  0  0  0  0  0  0  0  0  0  0
   -1.7906    5.7405    0.3104 H   0  0  0  0  0  0  0  0  0  0  0  0
   -2.2588    9.0839    1.8170 H   0  0  0  0  0  0  0  0  0  0  0  0
   -2.2950    7.3230    1.6430 H   0  0  0  0  0  0  0  0  0  0  0  0
   -4.1567    8.4214    0.3342 H   0  0  0  0  0  0  0  0  0  0  0  0
   -2.9574    9.3628   -0.5565 H   0  0  0  0  0  0  0  0  0  0  0  0
   -3.0286    7.6116   -0.7611 H   0  0  0  0  0  0  0  0  0  0  0  0
    1.9866    5.9600   -2.8499 H   0  0  0  0  0  0  0  0  0  0  0  0
   -2.2189    4.2511   -3.2949 H   0  0  0  0  0  0  0  0  0  0  0  0
   -4.2157    0.4508   -5.4410 H   0  0  0  0  0  0  0  0  0  0  0  0
   -6.8580   -0.8711   -6.2371 H   0  0  0  0  0  0  0  0  0  0  0  0
   -6.1590   -2.5973   -7.8088 H   0  0  0  0  0  0  0  0  0  0  0  0
   -5.5372   -4.0034   -9.3101 H   0  0  0  0  0  0  0  0  0  0  0  0
   -4.2348   -5.1073   -9.7731 H   0  0  0  0  0  0  0  0  0  0  0  0
   -2.5273   -3.3924   -9.2159 H   0  0  0  0  0  0  0  0  0  0  0  0
   -3.6587   -2.7498  -10.4121 H   0  0  0  0  0  0  0  0  0  0  0  0
   -3.7873   -2.2614   -8.7185 H   0  0  0  0  0  0  0  0  0  0  0  0
   -4.4280   -2.6542   -3.1956 H   0  0  0  0  0  0  0  0  0  0  0  0
   -5.1843    1.2685    0.7791 H   0  0  0  0  0  0  0  0  0  0  0  0
   -5.1426    2.9663    2.5500 H   0  0  0  0  0  0  0  0  0  0  0  0
   -6.0461    7.0578    1.1385 H   0  0  0  0  0  0  0  0  0  0  0  0
   -7.5895    7.3043    1.9931 H   0  0  0  0  0  0  0  0  0  0  0  0
   -4.8136    7.9274    3.1349 H   0  0  0  0  0  0  0  0  0  0  0  0
   -5.9738    9.1302    2.5518 H   0  0  0  0  0  0  0  0  0  0  0  0
   -6.3436    8.1615    3.9822 H   0  0  0  0  0  0  0  0  0  0  0  0
   -7.8077    3.7649   -1.5076 H   0  0  0  0  0  0  0  0  0  0  0  0
   -7.1479   -0.0356    0.8067 H   0  0  0  0  0  0  0  0  0  0  0  0
   -5.2032   -4.1116   -0.4041 H   0  0  0  0  0  0  0  0  0  0  0  0
   -4.0931   -6.3961    0.3339 H   0  0  0  0  0  0  0  0  0  0  0  0
   -3.6136   -7.6275   -1.7034 H   0  0  0  0  0  0  0  0  0  0  0  0
   -2.4438   -8.9732   -4.9453 H   0  0  0  0  0  0  0  0  0  0  0  0
   -2.9837   -8.9621   -3.2610 H   0  0  0  0  0  0  0  0  0  0  0  0
   -4.9050   -8.4919   -4.8072 H   0  0  0  0  0  0  0  0  0  0  0  0
   -4.0108   -7.1402   -5.5149 H   0  0  0  0  0  0  0  0  0  0  0  0
   -4.5611   -7.0478   -3.8458 H   0  0  0  0  0  0  0  0  0  0  0  0
   -1.0311   -3.5663   -0.6467 H   0  0  0  0  0  0  0  0  0  0  0  0
   -2.1006   -0.1445    3.9658 H   0  0  0  0  0  0  0  0  0  0  0  0
   -2.7575    1.6816    5.4759 H   0  0  0  0  0  0  0  0  0  0  0  0
   -7.2291    1.4406    7.2695 H   0  0  0  0  0  0  0  0  0  0  0  0
   -6.9502    3.1780    7.4888 H   0  0  0  0  0  0  0  0  0  0  0  0
   -8.0141    2.7358    5.2674 H   0  0  0  0  0  0  0  0  0  0  0  0
   -6.3950    3.4105    5.0643 H   0  0  0  0  0  0  0  0  0  0  0  0
   -6.6709    1.6797    4.8253 H   0  0  0  0  0  0  0  0  0  0  0  0
   -5.4816   -2.4128    5.3014 H   0  0  0  0  0  0  0  0  0  0  0  0
   -0.9143   -2.0262    4.8541 H   0  0  0  0  0  0  0  0  0  0  0  0
    2.3101   -2.8452    1.5780 H   0  0  0  0  0  0  0  0  0  0  0  0
    3.1896   -0.6406    0.8002 H   0  0  0  0  0  0  0  0  0  0  0  0
    3.0338   -0.7188   -1.6546 H   0  0  0  0  0  0  0  0  0  0  0  0
    4.3859   -3.8377   -5.1029 H   0  0  0  0  0  0  0  0  0  0  0  0
    5.4657   -4.2297   -3.7494 H   0  0  0  0  0  0  0  0  0  0  0  0
    3.4908   -4.4609   -2.2335 H   0  0  0  0  0  0  0  0  0  0  0  0
    3.2730   -5.5064   -3.6415 H   0  0  0  0  0  0  0  0  0  0  0  0
    2.4120   -3.9657   -3.5397 H   0  0  0  0  0  0  0  0  0  0  0  0
    6.6343   -3.1830    0.6316 H   0  0  0  0  0  0  0  0  0  0  0  0
    5.6736    0.4648    6.6492 H   0  0  0  0  0  0  0  0  0  0  0  0
    5.6086    0.7951    9.0561 H   0  0  0  0  0  0  0  0  0  0  0  0
    5.7833    1.0964   11.1554 H   0  0  0  0  0  0  0  0  0  0  0  0
    4.9600    0.7849   12.6890 H   0  0  0  0  0  0  0  0  0  0  0  0
    3.5135    1.5310   10.0895 H   0  0  0  0  0  0  0  0  0  0  0  0
    3.8175    2.6363   11.4355 H   0  0  0  0  0  0  0  0  0  0  0  0
    2.7551    1.2406   11.6548 H   0  0  0  0  0  0  0  0  0  0  0  0
    3.9411   -3.4234    7.1250 H   0  0  0  0  0  0  0  0  0  0  0  0
    7.5705   -1.0900    6.0677 H   0  0  0  0  0  0  0  0  0  0  0  0
    9.3275   -0.8906    4.1517 H   0  0  0  0  0  0  0  0  0  0  0  0
  1  2  1  0  0  0  0
  2  3  2  0  0  0  0
  3  4  1  0  0  0  0
  4  5  1  0  0  0  0
  5  6  2  0  0  0  0
  6  7  1  0  0  0  0
  7  8  2  0  0  0  0
  8  9  1  0  0  0  0
  7 10  1  0  0  0  0
 10 11  1  0  0  0  0
 11 12  2  0  0  0  0
 12 13  1  0  0  0  0
 13 14  1  0  0  0  0
 14 15  2  0  0  0  0
 15 16  1  0  0  0  0
 16 17  2  0  0  0  0
 17 18  1  0  0  0  0
 16 19  1  0  0  0  0
 19 20  2  0  0  0  0
 20 21  1  0  0  0  0
 21 22  2  0  0  0  0
 22 23  1  0  0  0  0
 23 24  2  0  0  0  0
 24 25  1  0  0  0  0
 25 26  2  0  0  0  0
 26 27  1  0  0  0  0
 27 28  1  0  0  0  0
 28 29  1  0  0  0  0
 26 30  1  0  0  0  0
 30 31  1  0  0  0  0
 30 32  2  0  0  0  0
 22 33  1  0  0  0  0
 33 34  2  0  0  0  0
 34 35  1  0  0  0  0
 35 36  1  0  0  0  0
 36 37  2  0  0  0  0
 37 38  1  0  0  0  0
 38 39  2  0  0  0  0
 39 40  1  0  0  0  0
 40 41  1  0  0  0  0
 41 42  1  0  0  0  0
 39 43  1  0  0  0  0
 43 44  2  0  0  0  0
 43 45  1  0  0  0  0
 35 46  2  0  0  0  0
 46 47  1  0  0  0  0
 34 48  1  0  0  0  0
 48 49  2  0  0  0  0
 49 50  1  0  0  0  0
 49 51  1  0  0  0  0
 51 52  2  0  0  0  0
 52 53  1  0  0  0  0
 53 54  2  0  0  0  0
 54 55  1  0  0  0  0
 55 56  2  0  0  0  0
 56 57  1  0  0  0  0
 57 58  2  0  0  0  0
 58 59  1  0  0  0  0
 59 60  1  0  0  0  0
 60 61  1  0  0  0  0
 58 62  1  0  0  0  0
 62 63  1  0  0  0  0
 62 64  2  0  0  0  0
 54 65  1  0  0  0  0
 65 66  2  0  0  0  0
 66 67  1  0  0  0  0
 67 68  1  0  0  0  0
 68 69  2  0  0  0  0
 69 70  1  0  0  0  0
 70 71  2  0  0  0  0
 71 72  1  0  0  0  0
 72 73  1  0  0  0  0
 73 74  1  0  0  0  0
 71 75  1  0  0  0  0
 75 76  2  0  0  0  0
 75 77  1  0  0  0  0
 67 78  2  0  0  0  0
 78 79  1  0  0  0  0
 66 80  1  0  0  0  0
 80 81  2  0  0  0  0
 81 82  1  0  0  0  0
 81 83  1  0  0  0  0
 83 84  2  0  0  0  0
 84 85  1  0  0  0  0
 85 86  2  0  0  0  0
 86 87  1  0  0  0  0
 87 88  2  0  0  0  0
 88 89  1  0  0  0  0
 89 90  2  0  0  0  0
 90 91  1  0  0  0  0
 91 92  1  0  0  0  0
 92 93  1  0  0  0  0
 90 94  1  0  0  0  0
 94 95  1  0  0  0  0
 94 96  2  0  0  0  0
 86 97  1  0  0  0  0
 97 98  2  0  0  0  0
 98 99  1  0  0  0  0
 99100  1  0  0  0  0
100101  2  0  0  0  0
101102  1  0  0  0  0
102103  2  0  0  0  0
103104  1  0  0  0  0
104105  1  0  0  0  0
105106  1  0  0  0  0
103107  1  0  0  0  0
107108  2  0  0  0  0
107109  1  0  0  0  0
 99110  2  0  0  0  0
110111  1  0  0  0  0
 98112  1  0  0  0  0
112113  2  0  0  0  0
113114  1  0  0  0  0
113115  1  0  0  0  0
115116  2  0  0  0  0
116117  1  0  0  0  0
117118  2  0  0  0  0
118119  1  0  0  0  0
119120  2  0  0  0  0
120121  1  0  0  0  0
121122  2  0  0  0  0
122123  1  0  0  0  0
123124  1  0  0  0  0
124125  1  0  0  0  0
122126  1  0  0  0  0
126127  1  0  0  0  0
126128  2  0  0  0  0
118129  1  0  0  0  0
129130  2  0  0  0  0
130131  1  0  0  0  0
131132  1  0  0  0  0
132133  2  0  0  0  0
133134  1  0  0  0  0
134135  2  0  0  0  0
135136  1  0  0  0  0
136137  1  0  0  0  0
137138  1  0  0  0  0
135139  1  0  0  0  0
139140  2  0  0  0  0
139141  1  0  0  0  0
131142  2  0  0  0  0
142143  1  0  0  0  0
130144  1  0  0  0  0
144145  2  0  0  0  0
145146  1  0  0  0  0
  9  1  2  0  0  0  0
 18 10  2  0  0  0  0
 47 19  1  0  0  0  0
 79 51  1  0  0  0  0
111 83  1  0  0  0  0
143115  1  0  0  0  0
  6  2  1  0  0  0  0
 15 11  1  0  0  0  0
 46 21  1  0  0  0  0
 78 53  1  0  0  0  0
110 85  1  0  0  0  0
142117  1  0  0  0  0
 32 23  1  0  0  0  0
 50 33  1  0  0  0  0
 64 55  1  0  0  0  0
 82 65  1  0  0  0  0
 96 87  1  0  0  0  0
114 97  1  0  0  0  0
128119  1  0  0  0  0
146129  1  0  0  0  0
 44 36  1  0  0  0  0
 76 68  1  0  0  0  0
108100  1  0  0  0  0
140132  1  0  0  0  0
  1147  1  0  0  0  0
  8148  1  0  0  0  0
  9149  1  0  0  0  0
 17150  1  0  0  0  0
 18151  1  0  0  0  0
 20152  1  0  0  0  0
 24153  1  0  0  0  0
 25154  1  0  0  0  0
 28155  1  0  0  0  0
 28156  1  0  0  0  0
 29157  1  0  0  0  0
 29158  1  0  0  0  0
 29159  1  0  0  0  0
 32160  1  0  0  0  0
 37161  1  0  0  0  0
 38162  1  0  0  0  0
 41163  1  0  0  0  0
 41164  1  0  0  0  0
 42165  1  0  0  0  0
 42166  1  0  0  0  0
 42167  1  0  0  0  0
 44168  1  0  0  0  0
 48169  1  0  0  0  0
 52170  1  0  0  0  0
 56171  1  0  0  0  0
 57172  1  0  0  0  0
 60173  1  0  0  0  0
 60174  1  0  0  0  0
 61175  1  0  0  0  0
 61176  1  0  0  0  0
 61177  1  0  0  0  0
 64178  1  0  0  0  0
 69179  1  0  0  0  0
 70180  1  0  0  0  0
 73181  1  0  0  0  0
 73182  1  0  0  0  0
 74183  1  0  0  0  0
 74184  1  0  0  0  0
 74185  1  0  0  0  0
 76186  1  0  0  0  0
 80187  1  0  0  0  0
 84188  1  0  0  0  0
 88189  1  0  0  0  0
 89190  1  0  0  0  0
 92191  1  0  0  0  0
 92192  1  0  0  0  0
 93193  1  0  0  0  0
 93194  1  0  0  0  0
 93195  1  0  0  0  0
 96196  1  0  0  0  0
101197  1  0  0  0  0
102198  1  0  0  0  0
105199  1  0  0  0  0
105200  1  0  0  0  0
106201  1  0  0  0  0
106202  1  0  0  0  0
106203  1  0  0  0  0
108204  1  0  0  0  0
112205  1  0  0  0  0
116206  1  0  0  0  0
120207  1  0  0  0  0
121208  1  0  0  0  0
124209  1  0  0  0  0
124210  1  0  0  0  0
125211  1  0  0  0  0
125212  1  0  0  0  0
125213  1  0  0  0  0
128214  1  0  0  0  0
133215  1  0  0  0  0
134216  1  0  0  0  0
137217  1  0  0  0  0
137218  1  0  0  0  0
138219  1  0  0  0  0
138220  1  0  0  0  0
138221  1  0  0  0  0
140222  1  0  0  0  0
144223  1  0  0  0  0
145224  1  0  0  0  0
M  END
