
  xtb     03032206563D
 energy: -462.327249748292 gnorm: 0.000406293372 xtb: 6.4.1 (unknown)
236262  0     0  0            999 V2000
   -1.7453   -0.5596   10.6530 C   0  0  0  0  0  0  0  0  0  0  0  0
   -3.0134   -0.7317   10.2298 C   0  0  0  0  0  0  0  0  0  0  0  0
   -3.0899   -1.2212    8.8925 C   0  0  0  0  0  0  0  0  0  0  0  0
   -4.2370   -1.4660    8.1218 C   0  0  0  0  0  0  0  0  0  0  0  0
   -5.5750   -1.2513    8.6505 C   0  0  0  0  0  0  0  0  0  0  0  0
   -6.1030   -2.0212   10.1176 S   0  0  0  0  0  0  0  0  0  0  0  0
   -7.6846   -1.3265   10.0076 C   0  0  0  0  0  0  0  0  0  0  0  0
   -8.7036   -1.5601   11.0674 C   0  0  0  0  0  0  0  0  0  0  0  0
   -8.4636   -0.6411   12.2676 C   0  0  0  0  0  0  0  0  0  0  0  0
   -7.7779   -0.5390    8.8998 C   0  0  0  0  0  0  0  0  0  0  0  0
   -9.1901    0.3298    8.4586 Cl  0  0  0  0  0  0  0  0  0  0  0  0
   -6.5878   -0.4997    8.1236 C   0  0  0  0  0  0  0  0  0  0  0  0
   -6.4394    0.4688    6.7176 Cl  0  0  0  0  0  0  0  0  0  0  0  0
   -4.0399   -1.9352    6.8289 C   0  0  0  0  0  0  0  0  0  0  0  0
   -2.7536   -2.1526    6.2764 C   0  0  0  0  0  0  0  0  0  0  0  0
   -1.6047   -1.8290    7.0199 C   0  0  0  0  0  0  0  0  0  0  0  0
   -0.2818   -1.9040    6.4256 C   0  0  0  0  0  0  0  0  0  0  0  0
    1.0470   -2.6908    7.2268 S   0  0  0  0  0  0  0  0  0  0  0  0
    2.1483   -2.3152    5.9447 C   0  0  0  0  0  0  0  0  0  0  0  0
    3.5742   -2.7438    5.9926 C   0  0  0  0  0  0  0  0  0  0  0  0
    4.1557   -2.6569    7.3995 C   0  0  0  0  0  0  0  0  0  0  0  0
    1.5089   -1.6201    4.9610 C   0  0  0  0  0  0  0  0  0  0  0  0
    0.1349   -1.3808    5.2310 C   0  0  0  0  0  0  0  0  0  0  0  0
   -0.8511   -0.4393    4.1871 Cl  0  0  0  0  0  0  0  0  0  0  0  0
    2.2718   -1.0668    3.5259 Cl  0  0  0  0  0  0  0  0  0  0  0  0
   -1.8053   -1.4008    8.3278 C   0  0  0  0  0  0  0  0  0  0  0  0
   -0.5576   -0.9691    9.4649 S   0  0  0  0  0  0  0  0  0  0  0  0
   -2.8279   -2.7187    4.9795 C   0  0  0  0  0  0  0  0  0  0  0  0
   -4.1053   -2.8870    4.5316 C   0  0  0  0  0  0  0  0  0  0  0  0
   -5.2937   -2.3816    5.7097 S   0  0  0  0  0  0  0  0  0  0  0  0
   -4.5072   -3.3438    3.2369 C   0  0  0  0  0  0  0  0  0  0  0  0
   -3.7628   -4.0555    2.3428 C   0  0  0  0  0  0  0  0  0  0  0  0
   -4.4033   -4.2357    1.0928 C   0  0  0  0  0  0  0  0  0  0  0  0
   -3.8761   -4.8300   -0.0676 C   0  0  0  0  0  0  0  0  0  0  0  0
   -2.5730   -5.4771   -0.0534 C   0  0  0  0  0  0  0  0  0  0  0  0
   -2.2423   -6.7911    1.0376 S   0  0  0  0  0  0  0  0  0  0  0  0
   -0.6285   -6.9840    0.4416 C   0  0  0  0  0  0  0  0  0  0  0  0
    0.2610   -8.0629    0.9530 C   0  0  0  0  0  0  0  0  0  0  0  0
    0.0136   -9.3749    0.2047 C   0  0  0  0  0  0  0  0  0  0  0  0
   -0.3788   -6.0790   -0.5456 C   0  0  0  0  0  0  0  0  0  0  0  0
    1.1172   -5.9600   -1.3774 Cl  0  0  0  0  0  0  0  0  0  0  0  0
   -1.4760   -5.2194   -0.8264 C   0  0  0  0  0  0  0  0  0  0  0  0
   -1.3738   -3.9413   -1.9645 Cl  0  0  0  0  0  0  0  0  0  0  0  0
   -4.6372   -4.7425   -1.2234 C   0  0  0  0  0  0  0  0  0  0  0  0
   -5.9027   -4.0990   -1.2688 C   0  0  0  0  0  0  0  0  0  0  0  0
   -6.4383   -3.5259   -0.1009 C   0  0  0  0  0  0  0  0  0  0  0  0
   -7.7045   -2.8113   -0.1251 C   0  0  0  0  0  0  0  0  0  0  0  0
   -8.9905   -3.2167    0.9717 S   0  0  0  0  0  0  0  0  0  0  0  0
  -10.0319   -1.9942    0.3264 C   0  0  0  0  0  0  0  0  0  0  0  0
  -11.4236   -1.8260    0.8274 C   0  0  0  0  0  0  0  0  0  0  0  0
  -12.3579   -2.8702    0.2114 C   0  0  0  0  0  0  0  0  0  0  0  0
   -9.4049   -1.3221   -0.6796 C   0  0  0  0  0  0  0  0  0  0  0  0
   -8.0830   -1.7759   -0.9342 C   0  0  0  0  0  0  0  0  0  0  0  0
   -7.0584   -1.0221   -2.0899 Cl  0  0  0  0  0  0  0  0  0  0  0  0
  -10.1192   -0.0383   -1.5665 Cl  0  0  0  0  0  0  0  0  0  0  0  0
   -5.6776   -3.6194    1.0564 C   0  0  0  0  0  0  0  0  0  0  0  0
   -6.0701   -2.8913    2.5881 S   0  0  0  0  0  0  0  0  0  0  0  0
   -6.4376   -4.0804   -2.5758 C   0  0  0  0  0  0  0  0  0  0  0  0
   -5.6135   -4.6358   -3.5178 C   0  0  0  0  0  0  0  0  0  0  0  0
   -4.1791   -5.3390   -2.7888 S   0  0  0  0  0  0  0  0  0  0  0  0
   -5.6617   -4.4724   -4.9303 C   0  0  0  0  0  0  0  0  0  0  0  0
   -6.3868   -3.5115   -5.5951 C   0  0  0  0  0  0  0  0  0  0  0  0
   -5.7899   -3.3224   -6.8772 C   0  0  0  0  0  0  0  0  0  0  0  0
   -4.7728   -4.3890   -7.0191 C   0  0  0  0  0  0  0  0  0  0  0  0
   -4.6973   -5.0617   -5.8510 C   0  0  0  0  0  0  0  0  0  0  0  0
   -4.1019   -4.5545   -8.1748 O   0  0  0  0  0  0  0  0  0  0  0  0
   -3.1396   -5.5835   -8.1890 C   0  0  0  0  0  0  0  0  0  0  0  0
   -5.8281   -2.1600   -7.6033 C   0  0  0  0  0  0  0  0  0  0  0  0
   -4.7699   -1.6698   -8.4236 C   0  0  0  0  0  0  0  0  0  0  0  0
   -4.8555   -0.2982   -8.4509 C   0  0  0  0  0  0  0  0  0  0  0  0
   -6.1074    0.1110   -7.8174 C   0  0  0  0  0  0  0  0  0  0  0  0
   -6.6951   -0.9950   -7.3137 C   0  0  0  0  0  0  0  0  0  0  0  0
   -7.8483   -1.1467   -6.6353 O   0  0  0  0  0  0  0  0  0  0  0  0
   -8.5614    0.0335   -6.3462 C   0  0  0  0  0  0  0  0  0  0  0  0
   -3.7590    0.5778   -8.6777 C   0  0  0  0  0  0  0  0  0  0  0  0
   -3.6302    1.8545   -8.1957 C   0  0  0  0  0  0  0  0  0  0  0  0
   -2.2920    2.2973   -8.1049 C   0  0  0  0  0  0  0  0  0  0  0  0
   -1.8051    3.4539   -7.4638 C   0  0  0  0  0  0  0  0  0  0  0  0
   -2.6696    4.5063   -6.9624 C   0  0  0  0  0  0  0  0  0  0  0  0
   -4.0709    4.1906   -5.9803 S   0  0  0  0  0  0  0  0  0  0  0  0
   -4.4133    5.8746   -5.7774 C   0  0  0  0  0  0  0  0  0  0  0  0
   -5.6121    6.3350   -5.0239 C   0  0  0  0  0  0  0  0  0  0  0  0
   -6.8423    6.3857   -5.9334 C   0  0  0  0  0  0  0  0  0  0  0  0
   -3.4953    6.6259   -6.4477 C   0  0  0  0  0  0  0  0  0  0  0  0
   -3.5141    8.3409   -6.4927 Cl  0  0  0  0  0  0  0  0  0  0  0  0
   -2.5016    5.8571   -7.1100 C   0  0  0  0  0  0  0  0  0  0  0  0
   -1.2731    6.5760   -8.0641 Cl  0  0  0  0  0  0  0  0  0  0  0  0
   -0.4360    3.4996   -7.2252 C   0  0  0  0  0  0  0  0  0  0  0  0
    0.4663    2.5282   -7.7179 C   0  0  0  0  0  0  0  0  0  0  0  0
   -0.0043    1.4678   -8.5187 C   0  0  0  0  0  0  0  0  0  0  0  0
    0.9297    0.5232   -9.0972 C   0  0  0  0  0  0  0  0  0  0  0  0
    0.7072   -1.1975   -8.9903 S   0  0  0  0  0  0  0  0  0  0  0  0
    2.1819   -1.5194   -9.8362 C   0  0  0  0  0  0  0  0  0  0  0  0
    2.6011   -2.9134  -10.1477 C   0  0  0  0  0  0  0  0  0  0  0  0
    1.8962   -3.4245  -11.4064 C   0  0  0  0  0  0  0  0  0  0  0  0
    2.7918   -0.3526  -10.1906 C   0  0  0  0  0  0  0  0  0  0  0  0
    2.0914    0.8067   -9.7661 C   0  0  0  0  0  0  0  0  0  0  0  0
    2.6274    2.3936  -10.1391 Cl  0  0  0  0  0  0  0  0  0  0  0  0
    4.2690   -0.2692  -11.0597 Cl  0  0  0  0  0  0  0  0  0  0  0  0
   -1.3825    1.3365   -8.6205 C   0  0  0  0  0  0  0  0  0  0  0  0
   -2.2210   -0.0578   -9.2385 S   0  0  0  0  0  0  0  0  0  0  0  0
    1.7419    2.6364   -7.1147 C   0  0  0  0  0  0  0  0  0  0  0  0
    1.8123    3.6129   -6.1638 C   0  0  0  0  0  0  0  0  0  0  0  0
    0.3413    4.5616   -6.0820 S   0  0  0  0  0  0  0  0  0  0  0  0
    2.7876    3.7106   -5.1282 C   0  0  0  0  0  0  0  0  0  0  0  0
    2.6180    4.3011   -3.9095 C   0  0  0  0  0  0  0  0  0  0  0  0
    3.5716    3.8936   -2.9463 C   0  0  0  0  0  0  0  0  0  0  0  0
    3.6052    4.2045   -1.5757 C   0  0  0  0  0  0  0  0  0  0  0  0
    2.6702    5.1375   -0.9699 C   0  0  0  0  0  0  0  0  0  0  0  0
    0.9496    4.9976   -1.1838 S   0  0  0  0  0  0  0  0  0  0  0  0
    0.6310    6.3693   -0.1792 C   0  0  0  0  0  0  0  0  0  0  0  0
   -0.7616    6.8070    0.1129 C   0  0  0  0  0  0  0  0  0  0  0  0
   -1.3322    6.0517    1.3157 C   0  0  0  0  0  0  0  0  0  0  0  0
    1.7981    6.8890    0.2950 C   0  0  0  0  0  0  0  0  0  0  0  0
    1.8857    8.2597    1.3229 Cl  0  0  0  0  0  0  0  0  0  0  0  0
    2.9550    6.1956   -0.1504 C   0  0  0  0  0  0  0  0  0  0  0  0
    4.5409    6.7103    0.2443 Cl  0  0  0  0  0  0  0  0  0  0  0  0
    4.5491    3.5362   -0.8043 C   0  0  0  0  0  0  0  0  0  0  0  0
    5.5072    2.6512   -1.3549 C   0  0  0  0  0  0  0  0  0  0  0  0
    5.5205    2.3963   -2.7383 C   0  0  0  0  0  0  0  0  0  0  0  0
    6.5130    1.5048   -3.3178 C   0  0  0  0  0  0  0  0  0  0  0  0
    8.2100    1.8110   -3.0815 S   0  0  0  0  0  0  0  0  0  0  0  0
    8.6717    0.4271   -4.0118 C   0  0  0  0  0  0  0  0  0  0  0  0
   10.1035    0.1089   -4.2673 C   0  0  0  0  0  0  0  0  0  0  0  0
   10.6166    0.8534   -5.5022 C   0  0  0  0  0  0  0  0  0  0  0  0
    7.5654   -0.2196   -4.4751 C   0  0  0  0  0  0  0  0  0  0  0  0
    6.3402    0.3826   -4.0790 C   0  0  0  0  0  0  0  0  0  0  0  0
    4.8195   -0.3132   -4.4539 Cl  0  0  0  0  0  0  0  0  0  0  0  0
    7.6217   -1.6396   -5.4364 Cl  0  0  0  0  0  0  0  0  0  0  0  0
    4.5258    2.9980   -3.4956 C   0  0  0  0  0  0  0  0  0  0  0  0
    4.2329    2.7241   -5.1892 S   0  0  0  0  0  0  0  0  0  0  0  0
    6.2710    2.0070   -0.3519 C   0  0  0  0  0  0  0  0  0  0  0  0
    5.8969    2.3463    0.9160 C   0  0  0  0  0  0  0  0  0  0  0  0
    4.6212    3.5413    0.9331 S   0  0  0  0  0  0  0  0  0  0  0  0
    6.3815    1.7791    2.1354 C   0  0  0  0  0  0  0  0  0  0  0  0
    7.5014    1.0205    2.3078 C   0  0  0  0  0  0  0  0  0  0  0  0
    7.6542    0.5336    3.6297 C   0  0  0  0  0  0  0  0  0  0  0  0
    8.6869   -0.2692    4.1436 C   0  0  0  0  0  0  0  0  0  0  0  0
    9.8420   -0.6089    3.3313 C   0  0  0  0  0  0  0  0  0  0  0  0
   10.3672   -2.2547    3.1344 S   0  0  0  0  0  0  0  0  0  0  0  0
   11.6701   -1.7969    2.0916 C   0  0  0  0  0  0  0  0  0  0  0  0
   12.6213   -2.8106    1.5592 C   0  0  0  0  0  0  0  0  0  0  0  0
   13.6833   -3.1619    2.6037 C   0  0  0  0  0  0  0  0  0  0  0  0
   11.6916   -0.4442    1.9262 C   0  0  0  0  0  0  0  0  0  0  0  0
   12.8458    0.3855    0.9641 Cl  0  0  0  0  0  0  0  0  0  0  0  0
   10.6547    0.2329    2.6223 C   0  0  0  0  0  0  0  0  0  0  0  0
   10.5109    1.9444    2.6238 Cl  0  0  0  0  0  0  0  0  0  0  0  0
    8.5417   -0.7189    5.4502 C   0  0  0  0  0  0  0  0  0  0  0  0
    7.4427   -0.3691    6.2704 C   0  0  0  0  0  0  0  0  0  0  0  0
    6.4496    0.4958    5.7814 C   0  0  0  0  0  0  0  0  0  0  0  0
    5.3194    0.8976    6.6009 C   0  0  0  0  0  0  0  0  0  0  0  0
    3.6966    0.7363    5.9985 S   0  0  0  0  0  0  0  0  0  0  0  0
    3.0038    1.3115    7.4738 C   0  0  0  0  0  0  0  0  0  0  0  0
    1.5273    1.3839    7.6439 C   0  0  0  0  0  0  0  0  0  0  0  0
    0.8464    2.0612    6.4581 C   0  0  0  0  0  0  0  0  0  0  0  0
    3.9862    1.6302    8.3632 C   0  0  0  0  0  0  0  0  0  0  0  0
    5.3005    1.3998    7.8727 C   0  0  0  0  0  0  0  0  0  0  0  0
    6.7022    1.8065    8.7769 Cl  0  0  0  0  0  0  0  0  0  0  0  0
    3.6913    2.2416    9.9403 Cl  0  0  0  0  0  0  0  0  0  0  0  0
    6.5726    0.9126    4.4610 C   0  0  0  0  0  0  0  0  0  0  0  0
    5.4504    1.9337    3.6092 S   0  0  0  0  0  0  0  0  0  0  0  0
    7.5143   -1.0121    7.5414 C   0  0  0  0  0  0  0  0  0  0  0  0
    8.6212   -1.7682    7.6844 C   0  0  0  0  0  0  0  0  0  0  0  0
    9.6492   -1.7662    6.2928 S   0  0  0  0  0  0  0  0  0  0  0  0
   -1.4102   -0.2082   11.6090 H   0  0  0  0  0  0  0  0  0  0  0  0
   -3.8768   -0.5209   10.8332 H   0  0  0  0  0  0  0  0  0  0  0  0
   -9.6927   -1.3668   10.6488 H   0  0  0  0  0  0  0  0  0  0  0  0
   -8.6580   -2.6008   11.3933 H   0  0  0  0  0  0  0  0  0  0  0  0
   -8.5164    0.4005   11.9609 H   0  0  0  0  0  0  0  0  0  0  0  0
   -7.4817   -0.8290   12.6957 H   0  0  0  0  0  0  0  0  0  0  0  0
   -9.2167   -0.8182   13.0305 H   0  0  0  0  0  0  0  0  0  0  0  0
    4.1431   -2.1108    5.3083 H   0  0  0  0  0  0  0  0  0  0  0  0
    3.6528   -3.7752    5.6343 H   0  0  0  0  0  0  0  0  0  0  0  0
    5.2042   -2.9431    7.3873 H   0  0  0  0  0  0  0  0  0  0  0  0
    4.0748   -1.6423    7.7819 H   0  0  0  0  0  0  0  0  0  0  0  0
    3.6191   -3.3208    8.0731 H   0  0  0  0  0  0  0  0  0  0  0  0
   -1.9653   -2.9836    4.3977 H   0  0  0  0  0  0  0  0  0  0  0  0
   -2.7796   -4.4284    2.5625 H   0  0  0  0  0  0  0  0  0  0  0  0
    0.0759   -8.2118    2.0182 H   0  0  0  0  0  0  0  0  0  0  0  0
    1.2991   -7.7542    0.8163 H   0  0  0  0  0  0  0  0  0  0  0  0
    0.2039   -9.2433   -0.8573 H   0  0  0  0  0  0  0  0  0  0  0  0
    0.6729  -10.1511    0.5837 H   0  0  0  0  0  0  0  0  0  0  0  0
   -1.0169   -9.6957    0.3365 H   0  0  0  0  0  0  0  0  0  0  0  0
  -11.7700   -0.8240    0.5679 H   0  0  0  0  0  0  0  0  0  0  0  0
  -11.4320   -1.9289    1.9139 H   0  0  0  0  0  0  0  0  0  0  0  0
  -12.3670   -2.7762   -0.8716 H   0  0  0  0  0  0  0  0  0  0  0  0
  -12.0256   -3.8725    0.4711 H   0  0  0  0  0  0  0  0  0  0  0  0
  -13.3699   -2.7303    0.5815 H   0  0  0  0  0  0  0  0  0  0  0  0
   -7.3877   -3.6481   -2.8258 H   0  0  0  0  0  0  0  0  0  0  0  0
   -7.1378   -2.8704   -5.1811 H   0  0  0  0  0  0  0  0  0  0  0  0
   -4.0509   -5.8760   -5.5850 H   0  0  0  0  0  0  0  0  0  0  0  0
   -2.3596   -5.4010   -7.4434 H   0  0  0  0  0  0  0  0  0  0  0  0
   -3.6013   -6.5561   -7.9929 H   0  0  0  0  0  0  0  0  0  0  0  0
   -2.7031   -5.5787   -9.1861 H   0  0  0  0  0  0  0  0  0  0  0  0
   -3.9489   -2.2622   -8.7752 H   0  0  0  0  0  0  0  0  0  0  0  0
   -6.4541    1.1244   -7.7718 H   0  0  0  0  0  0  0  0  0  0  0  0
   -7.9566    0.7187   -5.7438 H   0  0  0  0  0  0  0  0  0  0  0  0
   -9.4405   -0.2717   -5.7814 H   0  0  0  0  0  0  0  0  0  0  0  0
   -8.8721    0.5417   -7.2642 H   0  0  0  0  0  0  0  0  0  0  0  0
   -4.4633    2.4193   -7.8231 H   0  0  0  0  0  0  0  0  0  0  0  0
   -5.8020    5.6545   -4.1922 H   0  0  0  0  0  0  0  0  0  0  0  0
   -5.4127    7.3311   -4.6247 H   0  0  0  0  0  0  0  0  0  0  0  0
   -6.6704    7.0691   -6.7609 H   0  0  0  0  0  0  0  0  0  0  0  0
   -7.7078    6.7278   -5.3725 H   0  0  0  0  0  0  0  0  0  0  0  0
   -7.0550    5.3981   -6.3359 H   0  0  0  0  0  0  0  0  0  0  0  0
    2.3555   -3.5621   -9.3051 H   0  0  0  0  0  0  0  0  0  0  0  0
    3.6817   -2.9294  -10.2995 H   0  0  0  0  0  0  0  0  0  0  0  0
    2.1480   -2.7989  -12.2589 H   0  0  0  0  0  0  0  0  0  0  0  0
    0.8179   -3.4051  -11.2675 H   0  0  0  0  0  0  0  0  0  0  0  0
    2.2046   -4.4445  -11.6195 H   0  0  0  0  0  0  0  0  0  0  0  0
    2.5451    1.9432   -7.2894 H   0  0  0  0  0  0  0  0  0  0  0  0
    1.7868    4.9480   -3.6963 H   0  0  0  0  0  0  0  0  0  0  0  0
   -1.3888    6.6262   -0.7618 H   0  0  0  0  0  0  0  0  0  0  0  0
   -0.7541    7.8779    0.3246 H   0  0  0  0  0  0  0  0  0  0  0  0
   -0.7200    6.2287    2.1963 H   0  0  0  0  0  0  0  0  0  0  0  0
   -2.3447    6.3884    1.5213 H   0  0  0  0  0  0  0  0  0  0  0  0
   -1.3528    4.9830    1.1158 H   0  0  0  0  0  0  0  0  0  0  0  0
   10.2006   -0.9673   -4.4233 H   0  0  0  0  0  0  0  0  0  0  0  0
   10.6987    0.3930   -3.3978 H   0  0  0  0  0  0  0  0  0  0  0  0
   10.0384    0.5720   -6.3786 H   0  0  0  0  0  0  0  0  0  0  0  0
   11.6602    0.6080   -5.6790 H   0  0  0  0  0  0  0  0  0  0  0  0
   10.5295    1.9277   -5.3583 H   0  0  0  0  0  0  0  0  0  0  0  0
    7.0281    1.2755   -0.5647 H   0  0  0  0  0  0  0  0  0  0  0  0
    8.1911    0.8048    1.5137 H   0  0  0  0  0  0  0  0  0  0  0  0
   12.0731   -3.7130    1.2825 H   0  0  0  0  0  0  0  0  0  0  0  0
   13.1026   -2.4050    0.6675 H   0  0  0  0  0  0  0  0  0  0  0  0
   13.2129   -3.5629    3.4983 H   0  0  0  0  0  0  0  0  0  0  0  0
   14.2508   -2.2759    2.8768 H   0  0  0  0  0  0  0  0  0  0  0  0
   14.3682   -3.9051    2.2047 H   0  0  0  0  0  0  0  0  0  0  0  0
    1.1331    0.3690    7.7516 H   0  0  0  0  0  0  0  0  0  0  0  0
    1.3106    1.9248    8.5666 H   0  0  0  0  0  0  0  0  0  0  0  0
    1.1917    3.0869    6.3546 H   0  0  0  0  0  0  0  0  0  0  0  0
   -0.2311    2.0674    6.6001 H   0  0  0  0  0  0  0  0  0  0  0  0
    1.0720    1.5279    5.5378 H   0  0  0  0  0  0  0  0  0  0  0  0
    6.7614   -0.9135    8.3005 H   0  0  0  0  0  0  0  0  0  0  0  0
    8.9154   -2.3498    8.5361 H   0  0  0  0  0  0  0  0  0  0  0  0
  1  2  2  0  0  0  0
  2  3  1  0  0  0  0
  3  4  2  0  0  0  0
  4  5  1  0  0  0  0
  5  6  1  0  0  0  0
  6  7  1  0  0  0  0
  7  8  1  0  0  0  0
  8  9  1  0  0  0  0
  7 10  2  0  0  0  0
 10 11  1  0  0  0  0
 10 12  1  0  0  0  0
 12 13  1  0  0  0  0
  4 14  1  0  0  0  0
 14 15  2  0  0  0  0
 15 16  1  0  0  0  0
 16 17  1  0  0  0  0
 17 18  1  0  0  0  0
 18 19  1  0  0  0  0
 19 20  1  0  0  0  0
 20 21  1  0  0  0  0
 19 22  2  0  0  0  0
 22 23  1  0  0  0  0
 23 24  1  0  0  0  0
 22 25  1  0  0  0  0
 16 26  2  0  0  0  0
 26 27  1  0  0  0  0
 15 28  1  0  0  0  0
 28 29  2  0  0  0  0
 29 30  1  0  0  0  0
 29 31  1  0  0  0  0
 31 32  2  0  0  0  0
 32 33  1  0  0  0  0
 33 34  2  0  0  0  0
 34 35  1  0  0  0  0
 35 36  1  0  0  0  0
 36 37  1  0  0  0  0
 37 38  1  0  0  0  0
 38 39  1  0  0  0  0
 37 40  2  0  0  0  0
 40 41  1  0  0  0  0
 40 42  1  0  0  0  0
 42 43  1  0  0  0  0
 34 44  1  0  0  0  0
 44 45  2  0  0  0  0
 45 46  1  0  0  0  0
 46 47  1  0  0  0  0
 47 48  1  0  0  0  0
 48 49  1  0  0  0  0
 49 50  1  0  0  0  0
 50 51  1  0  0  0  0
 49 52  2  0  0  0  0
 52 53  1  0  0  0  0
 53 54  1  0  0  0  0
 52 55  1  0  0  0  0
 46 56  2  0  0  0  0
 56 57  1  0  0  0  0
 45 58  1  0  0  0  0
 58 59  2  0  0  0  0
 59 60  1  0  0  0  0
 59 61  1  0  0  0  0
 61 62  2  0  0  0  0
 62 63  1  0  0  0  0
 63 64  1  0  0  0  0
 64 65  2  0  0  0  0
 64 66  1  0  0  0  0
 66 67  1  0  0  0  0
 63 68  2  0  0  0  0
 68 69  1  0  0  0  0
 69 70  2  0  0  0  0
 70 71  1  0  0  0  0
 71 72  2  0  0  0  0
 72 73  1  0  0  0  0
 73 74  1  0  0  0  0
 70 75  1  0  0  0  0
 75 76  2  0  0  0  0
 76 77  1  0  0  0  0
 77 78  2  0  0  0  0
 78 79  1  0  0  0  0
 79 80  1  0  0  0  0
 80 81  1  0  0  0  0
 81 82  1  0  0  0  0
 82 83  1  0  0  0  0
 81 84  2  0  0  0  0
 84 85  1  0  0  0  0
 84 86  1  0  0  0  0
 86 87  1  0  0  0  0
 78 88  1  0  0  0  0
 88 89  2  0  0  0  0
 89 90  1  0  0  0  0
 90 91  1  0  0  0  0
 91 92  1  0  0  0  0
 92 93  1  0  0  0  0
 93 94  1  0  0  0  0
 94 95  1  0  0  0  0
 93 96  2  0  0  0  0
 96 97  1  0  0  0  0
 97 98  1  0  0  0  0
 96 99  1  0  0  0  0
 90100  2  0  0  0  0
100101  1  0  0  0  0
 89102  1  0  0  0  0
102103  2  0  0  0  0
103104  1  0  0  0  0
103105  1  0  0  0  0
105106  2  0  0  0  0
106107  1  0  0  0  0
107108  2  0  0  0  0
108109  1  0  0  0  0
109110  1  0  0  0  0
110111  1  0  0  0  0
111112  1  0  0  0  0
112113  1  0  0  0  0
111114  2  0  0  0  0
114115  1  0  0  0  0
114116  1  0  0  0  0
116117  1  0  0  0  0
108118  1  0  0  0  0
118119  2  0  0  0  0
119120  1  0  0  0  0
120121  1  0  0  0  0
121122  1  0  0  0  0
122123  1  0  0  0  0
123124  1  0  0  0  0
124125  1  0  0  0  0
123126  2  0  0  0  0
126127  1  0  0  0  0
127128  1  0  0  0  0
126129  1  0  0  0  0
120130  2  0  0  0  0
130131  1  0  0  0  0
119132  1  0  0  0  0
132133  2  0  0  0  0
133134  1  0  0  0  0
133135  1  0  0  0  0
135136  2  0  0  0  0
136137  1  0  0  0  0
137138  2  0  0  0  0
138139  1  0  0  0  0
139140  1  0  0  0  0
140141  1  0  0  0  0
141142  1  0  0  0  0
142143  1  0  0  0  0
141144  2  0  0  0  0
144145  1  0  0  0  0
144146  1  0  0  0  0
146147  1  0  0  0  0
138148  1  0  0  0  0
148149  2  0  0  0  0
149150  1  0  0  0  0
150151  1  0  0  0  0
151152  1  0  0  0  0
152153  1  0  0  0  0
153154  1  0  0  0  0
154155  1  0  0  0  0
153156  2  0  0  0  0
156157  1  0  0  0  0
157158  1  0  0  0  0
156159  1  0  0  0  0
150160  2  0  0  0  0
160161  1  0  0  0  0
149162  1  0  0  0  0
162163  2  0  0  0  0
163164  1  0  0  0  0
 27  1  1  0  0  0  0
 57 31  1  0  0  0  0
 65 61  1  0  0  0  0
 72 68  1  0  0  0  0
101 75  1  0  0  0  0
131105  1  0  0  0  0
161135  1  0  0  0  0
 26  3  1  0  0  0  0
 56 33  1  0  0  0  0
100 77  1  0  0  0  0
130107  1  0  0  0  0
160137  1  0  0  0  0
 12  5  2  0  0  0  0
 30 14  1  0  0  0  0
 42 35  2  0  0  0  0
 60 44  1  0  0  0  0
 86 79  2  0  0  0  0
104 88  1  0  0  0  0
116109  2  0  0  0  0
134118  1  0  0  0  0
146139  2  0  0  0  0
164148  1  0  0  0  0
 23 17  2  0  0  0  0
 53 47  2  0  0  0  0
 97 91  2  0  0  0  0
127121  2  0  0  0  0
157151  2  0  0  0  0
  1165  1  0  0  0  0
  2166  1  0  0  0  0
  8167  1  0  0  0  0
  8168  1  0  0  0  0
  9169  1  0  0  0  0
  9170  1  0  0  0  0
  9171  1  0  0  0  0
 20172  1  0  0  0  0
 20173  1  0  0  0  0
 21174  1  0  0  0  0
 21175  1  0  0  0  0
 21176  1  0  0  0  0
 28177  1  0  0  0  0
 32178  1  0  0  0  0
 38179  1  0  0  0  0
 38180  1  0  0  0  0
 39181  1  0  0  0  0
 39182  1  0  0  0  0
 39183  1  0  0  0  0
 50184  1  0  0  0  0
 50185  1  0  0  0  0
 51186  1  0  0  0  0
 51187  1  0  0  0  0
 51188  1  0  0  0  0
 58189  1  0  0  0  0
 62190  1  0  0  0  0
 65191  1  0  0  0  0
 67192  1  0  0  0  0
 67193  1  0  0  0  0
 67194  1  0  0  0  0
 69195  1  0  0  0  0
 71196  1  0  0  0  0
 74197  1  0  0  0  0
 74198  1  0  0  0  0
 74199  1  0  0  0  0
 76200  1  0  0  0  0
 82201  1  0  0  0  0
 82202  1  0  0  0  0
 83203  1  0  0  0  0
 83204  1  0  0  0  0
 83205  1  0  0  0  0
 94206  1  0  0  0  0
 94207  1  0  0  0  0
 95208  1  0  0  0  0
 95209  1  0  0  0  0
 95210  1  0  0  0  0
102211  1  0  0  0  0
106212  1  0  0  0  0
112213  1  0  0  0  0
112214  1  0  0  0  0
113215  1  0  0  0  0
113216  1  0  0  0  0
113217  1  0  0  0  0
124218  1  0  0  0  0
124219  1  0  0  0  0
125220  1  0  0  0  0
125221  1  0  0  0  0
125222  1  0  0  0  0
132223  1  0  0  0  0
136224  1  0  0  0  0
142225  1  0  0  0  0
142226  1  0  0  0  0
143227  1  0  0  0  0
143228  1  0  0  0  0
143229  1  0  0  0  0
154230  1  0  0  0  0
154231  1  0  0  0  0
155232  1  0  0  0  0
155233  1  0  0  0  0
155234  1  0  0  0  0
162235  1  0  0  0  0
163236  1  0  0  0  0
M  END
