218

C          8.42250        2.24020        6.48600
C          8.61600        3.01140        5.39690
C          7.59620        2.84690        4.41390
C          7.46210        3.51360        3.18930
C          8.48310        4.42010        2.65020
C          9.80110        3.99390        2.51500
C         10.74410        4.79120        1.89810
C         10.40150        6.04170        1.39640
S         11.53030        7.12530        0.57930
C         12.67840        5.96470       -0.24350
C         11.96880        5.09680       -1.26470
C          9.08720        6.47200        1.57420
F          8.72620        7.69050        1.13010
C          8.13390        5.68280        2.17960
C          6.33620        3.21210        2.43960
C          5.37550        2.24700        2.82930
C          5.50640        1.57830        4.05980
C          4.51080        0.59540        4.50080
C          3.14780        0.88940        4.45510
C          2.21480       -0.02860        4.88290
C          2.59520       -1.28170        5.35930
S          1.31340       -2.39780        5.83420
C          2.02050       -3.27050        7.28920
C          0.92320       -3.49020        8.31140
C          3.95680       -1.57230        5.37850
C          4.90390       -0.65260        4.97630
F          4.39760       -2.78490        5.78380
C          6.61980        1.90440        4.82250
S          7.00150        1.25780        6.39850
C          4.41520        2.03340        1.81100
C          4.62290        2.79700        0.69520
S          5.98660        3.87070        0.86630
C          3.80730        2.74470       -0.47310
C          4.10530        3.14860       -1.91080
N          3.09620        2.91660       -2.71780
C          2.11090        2.39320       -1.93930
C          0.82680        1.95430       -1.80230
S          0.92490        1.62540       -0.06380
C          2.54950        2.26920       -0.57170
C          5.30530        3.70370       -2.45340
C          5.32810        4.42110       -3.82020
N          6.51170        4.70870       -4.24400
C          7.35740        4.25640       -3.25750
C          8.61830        3.97810       -2.85490
S          8.14790        3.21770       -1.30070
C          6.61610        3.68020       -2.14480
C          4.06460        4.66840       -4.46830
C          3.48140        3.94980       -5.46160
C          2.05900        4.03070       -5.44610
C          1.16860        3.15980       -6.10270
C          1.64350        2.33000       -7.21410
C          2.38020        2.91910       -8.24410
C          2.83640        2.16770       -9.30300
C          2.58440        0.79670       -9.38700
S          3.19840       -0.03040      -10.81760
C          3.44250       -1.77250      -10.28620
C          4.40740       -2.44040      -11.24600
C          1.83820        0.22610       -8.36050
F          1.52500       -1.09040       -8.37210
C          1.38210        0.96700       -7.28840
C         -0.11470        3.08790       -5.57440
C         -0.56270        3.96070       -4.55370
C          0.28070        4.94230       -4.01290
C         -0.20650        5.81540       -2.93710
C         -1.34760        6.59440       -3.12260
C         -1.81240        7.41020       -2.11380
C         -1.17650        7.46550       -0.87440
S         -1.89060        8.51320        0.35710
C         -0.44620        9.25840        1.20040
C          0.45550        9.99990        0.23440
C         -0.06500        6.64890       -0.69120
C          0.42850        5.84850       -1.70090
F          0.57220        6.60150        0.50090
C          1.59930        4.89820       -4.42650
S          2.92400        5.69070       -3.61950
C         -1.77500        3.52350       -3.96730
C         -2.23890        2.34690       -4.47290
S         -1.29870        1.82510       -5.86460
C         -3.06040        1.43590       -3.72870
C         -3.77060        0.32540       -4.06030
C         -4.14270       -0.46730       -2.93420
C         -4.81690       -1.69960       -2.89790
C         -5.33210       -2.34080       -4.11480
C         -4.50950       -2.55720       -5.21920
C         -5.00310       -3.16850       -6.35120
C         -6.32790       -3.59610       -6.42870
S         -6.82050       -4.40950       -7.91930
C         -8.54170       -3.85190       -8.20040
C         -8.64060       -2.34340       -8.30420
C         -7.12710       -3.40330       -5.30610
F         -8.41090       -3.82430       -5.28560
C         -6.65050       -2.77840       -4.17130
C         -4.92390       -2.31950       -1.65880
C         -4.33860       -1.80530       -0.47380
C         -3.71820       -0.55140       -0.49400
C         -3.01200        0.05360        0.64360
C         -1.99460       -0.62630        1.31100
C         -1.19030        0.03060        2.21940
C         -1.37880        1.38150        2.50040
S         -0.24850        2.20300        3.57880
C         -0.00770        3.82100        2.73630
C          1.44520        4.23710        2.84410
C         -2.46040        2.02150        1.90260
C         -3.25670        1.38320        0.97550
F         -2.75200        3.30430        2.20570
C         -3.67510        0.09220       -1.72090
S         -2.86710        1.60460       -1.98510
C         -4.45100       -2.70680        0.61370
C         -5.10330       -3.85810        0.29830
S         -5.64600       -3.88360       -1.36890
C         -5.29240       -4.99480        1.14650
C         -6.25870       -5.94990        1.10020
C         -6.09810       -6.96490        2.08250
C         -6.93960       -8.05510        2.35210
C         -8.14590       -8.30670        1.55470
C         -8.08920       -8.36130        0.16230
C         -9.22850       -8.58720       -0.57780
C        -10.46960       -8.77200        0.03310
S        -11.84270       -9.07850       -1.03070
C        -13.28870       -8.40960       -0.11410
C        -14.39640       -8.11080       -1.10510
C        -10.50470       -8.74620        1.42400
F        -11.65940       -8.95560        2.09660
C         -9.37250       -8.50920        2.17700
C         -6.56830       -8.88290        3.40330
C         -5.38770       -8.69470        4.16240
C         -4.54750       -7.60500        3.89510
C         -3.29410       -7.38140        4.62730
C         -2.10020       -7.19530        3.93020
C         -0.91570       -7.00170        4.60340
C         -0.86670       -6.97090        5.99790
S          0.72030       -6.68750        6.71130
C          0.63150       -7.41950        8.39350
C          2.04520       -7.61770        8.90460
C         -2.06990       -7.12570        6.67930
C         -3.26210       -7.34280        6.01610
F         -2.12140       -7.06180        8.03140
C         -4.93880       -6.75720        2.86880
S         -4.10950       -5.29570        2.40660
C         -5.20490       -9.73990        5.11660
C         -6.19580      -10.65340        5.09080
S         -7.41720      -10.32080        3.91140
H          9.03410        2.17560        7.36480
H          9.43770        3.69500        5.28260
H         10.08290        3.01440        2.87110
H         11.75600        4.43050        1.80450
H         13.19450        5.37530        0.51310
H         13.40210        6.62240       -0.72440
H         11.22100        4.46660       -0.78560
H         11.47270        5.72340       -2.00290
H         12.68940        4.45830       -1.77270
H          7.12900        6.06060        2.28420
H          2.81520        1.85790        4.11750
H          1.16550        0.21940        4.86050
H          2.80920       -2.63980        7.69360
H          2.43800       -4.21550        6.94360
H          1.32560       -4.01450        9.17590
H          0.51060       -2.53880        8.63950
H          0.12000       -4.08410        7.88270
H          5.94390       -0.93810        5.00350
H          3.63010        1.30100        1.87530
H         -0.02840        1.84610       -2.43860
H          9.60400        4.08940       -3.25970
H          4.02730        3.26060       -6.07990
H          2.58450        3.97840       -8.21200
H          3.40340        2.62940      -10.09640
H          3.84530       -1.74960       -9.27490
H          2.47570       -2.27310      -10.28900
H          5.36610       -1.92660      -11.24490
H          4.01000       -2.42590      -12.25830
H          4.56340       -3.47480      -10.94740
H          0.83560        0.45540       -6.51260
H         -1.85600        6.57290       -4.07470
H         -2.68550        8.02550       -2.26610
H          0.08740        8.48260        1.74480
H         -0.90370        9.94230        1.91540
H          0.91100        9.31450       -0.47820
H         -0.10980       10.74740       -0.31810
H          1.25020       10.49890        0.78530
H          1.28830        5.22990       -1.49780
H         -2.21880        4.00710       -3.11440
H         -4.00620        0.06480       -5.07640
H         -3.47230       -2.26130       -5.18060
H         -4.36430       -3.33260       -7.20510
H         -9.17820       -4.25060       -7.41380
H         -8.80380       -4.32870       -9.14500
H         -9.66030       -2.06020       -8.55750
H         -7.97120       -1.96890       -9.07590
H         -8.37830       -1.87070       -7.35960
H         -7.32100       -2.63820       -3.33760
H         -1.79620       -1.66010        1.07330
H         -0.37780       -0.48930        2.70270
H         -0.66690        4.54940        3.20620
H         -0.29270        3.68350        1.69530
H          2.08730        3.50640        2.35530
H          1.74440        4.32740        3.88640
H          1.58260        5.19960        2.35740
H         -4.07250        1.93020        0.52840
H         -4.06500       -2.50420        1.59660
H         -7.07660       -5.91650        0.40310
H         -7.14110       -8.24030       -0.33910
H         -9.18110       -8.62540       -1.65510
H        -12.95920       -7.50390        0.39260
H        -13.60560       -9.14970        0.61900
H        -15.26100       -7.71190       -0.57890
H        -14.69410       -9.01630       -1.62890
H        -14.06530       -7.38060       -1.84020
H         -9.46570       -8.47890        3.25130
H         -2.09920       -7.23170        2.85200
H          0.00670       -6.87110        4.05950
H          0.10630       -8.36960        8.30850
H          0.07200       -6.74340        9.03810
H          2.57280       -6.66730        8.94640
H          2.59810       -8.28840        8.25080
H          2.01790       -8.04610        9.90410
H         -4.16560       -7.44560        6.59740
H         -4.35680       -9.79740        5.77420
H         -6.30120      -11.52880        5.70160
