236

C         -3.16200      -13.90440       11.38830
C         -3.41600      -14.60070       12.53140
C         -3.12960      -16.03210       12.82870
C         -4.40390      -16.87750       12.77250
S         -4.21720      -13.60050       13.69570
C         -4.21260      -12.23410       12.60970
C         -3.60420      -12.56920       11.42940
C         -4.74320      -10.98200       13.07570
C         -5.10880       -9.92560       12.33690
C         -5.19620       -9.87210       10.88330
C         -4.73510       -8.82480       10.12520
C         -4.06060       -7.57590       10.57760
C         -5.03170       -6.39280       10.54220
S         -5.06140       -9.05960        8.44300
C         -5.86390      -10.58030        8.74940
C         -5.82620      -10.86180       10.09240
C         -6.41150      -11.46760        7.76880
C         -6.54020      -11.36320        6.43140
C         -6.24140      -10.23990        5.58790
C         -6.39930       -8.90870        5.81380
C         -5.93650       -8.08230        4.75880
C         -5.85590       -6.68060        4.74380
C         -6.31210       -5.88400        5.89030
C         -5.45050       -4.98670        6.51760
C         -5.87300       -4.25260        7.60530
C         -7.16390       -4.38580        8.11160
S         -7.58230       -3.44080        9.54960
C         -9.25750       -2.80740        9.16800
C         -9.27340       -1.98640        7.89430
C         -8.00760       -5.29780        7.48570
F         -9.26390       -5.50210        7.94000
C         -7.60280       -6.02910        6.38710
C         -5.27030       -6.10320        3.62890
C         -4.81700       -6.86150        2.52210
C         -4.91120       -8.26360        2.52810
C         -4.43750       -9.03730        1.37380
C         -4.84630       -8.70220        0.08270
C         -4.36750       -9.39310       -1.00930
C         -3.45780      -10.43750       -0.86100
S         -2.84140      -11.19800       -2.33670
C         -2.83320      -12.98460       -1.94040
C         -4.20540      -13.47910       -1.53060
C         -3.05890      -10.76220        0.43170
C         -3.54590      -10.09180        1.53590
F         -2.15760      -11.74490        0.64870
C         -5.44060       -8.84300        3.67010
S         -5.59050      -10.55080        3.98300
C         -4.22320       -6.04210        1.53240
C         -4.22790       -4.71450        1.83970
S         -4.99150       -4.39450        3.38490
C         -3.63050       -3.67980        1.06250
C         -3.46950       -2.35760        1.35020
C         -2.72540       -1.65220        0.36800
C         -2.36860       -0.29430        0.34410
C         -2.68040        0.63000        1.44160
C         -2.37140        0.31090        2.76300
C         -2.60540        1.21550        3.77700
C         -3.14450        2.47370        3.51700
S         -3.32220        3.58710        4.88200
C         -4.94470        4.38790        4.59260
C         -6.07030        3.37590        4.52450
C         -3.43640        2.78390        2.19280
F         -3.93110        3.99590        1.86100
C         -3.22770        1.88050        1.17100
C         -1.64310        0.13740       -0.75740
C         -1.25360       -0.70500       -1.82890
C         -1.62360       -2.05810       -1.81240
C         -1.31180       -2.99350       -2.89930
C         -0.74470       -4.23490       -2.62240
C         -0.57160       -5.17790       -3.61460
C         -0.97190       -4.91880       -4.92080
S         -0.87220       -6.08080       -6.24090
C         -0.88710       -7.69640       -5.38350
C         -2.18060       -7.94400       -4.63190
C         -1.47930       -3.64790       -5.19660
C         -1.65100       -2.69460       -4.21690
F         -1.84310       -3.34410       -6.45800
C         -2.33860       -2.49190       -0.70570
S         -2.90040       -4.12330       -0.46910
C         -0.43700       -0.02670       -2.77170
C         -0.20240        1.27510       -2.44640
S         -1.00890        1.74590       -0.96020
C          0.60000        2.25490       -3.10050
C          0.81560        3.52200       -2.64800
C          1.69040        4.28040       -3.46030
C          2.14930        5.58780       -3.22500
C          1.61760        6.34390       -2.08570
C          2.45010        6.95640       -1.15140
C          1.92230        7.53570       -0.01610
C          0.54980        7.54020        0.22330
S         -0.04800        8.21800        1.73960
C         -1.39420        7.04120        2.18310
C         -1.51740        6.96980        3.69150
C         -0.27560        7.00920       -0.76460
F         -1.61990        7.06330       -0.64310
C          0.23950        6.40630       -1.89180
C          3.11050        6.06970       -4.09770
C          3.58850        5.32280       -5.20570
C          3.10560        4.02500       -5.45540
C          3.59140        3.22720       -6.58730
C          2.69910        2.59330       -7.45090
C          3.15880        1.86330       -8.52470
C          4.52270        1.71850       -8.77840
S          4.97000        0.72230      -10.16690
C          6.49070        1.49570      -10.83390
C          6.29040        2.95560      -11.18450
C          5.40150        2.32320       -7.88470
C          4.95540        3.07540       -6.81700
F          6.74210        2.19490       -8.02910
C          2.16110        3.53300       -4.56720
S          1.46930        1.92660       -4.58650
C          4.53300        6.05920       -5.96230
C          4.79880        7.29810       -5.45430
S          3.85900        7.64130       -4.01860
C          5.74700        8.24460       -5.95160
C          6.65320        8.04700       -6.95190
C          7.48510        9.16870       -7.19450
C          8.51710        9.28670       -8.13890
C          8.82320        8.18300       -9.05760
C          7.82150        7.59950       -9.83240
C          8.10060        6.52300      -10.64690
C          9.38550        5.99180      -10.72470
S          9.64150        4.59800      -11.78490
C         10.71490        3.49740      -10.78770
C         10.14080        3.22060       -9.41330
C         10.38620        6.61740       -9.98800
F         11.66290        6.18330      -10.05470
C         10.11810        7.68630       -9.15690
C          9.22390       10.47970       -8.14150
C          8.92770       11.55600       -7.27020
C          7.88950       11.44230       -6.33410
C          7.54870       12.54220       -5.42250
C          7.29500       13.82190       -5.90610
C          6.96790       14.85810       -5.05230
C          6.89660       14.65310       -3.67920
S          6.48700       15.87220       -2.47590
C          6.59760       17.45400       -3.38090
C          8.02960       17.83330       -3.70810
C          7.14410       13.36120       -3.20970
C          7.45960       12.31840       -4.05010
F          7.08050       13.12590       -1.88470
C          7.20020       10.23840       -6.31100
S          5.87830        9.84110       -5.24460
C          9.81460       12.65490       -7.47740
C         10.70610       12.43270       -8.46360
S         10.54670       10.87830       -9.20770
H         -2.66140      -14.33530       10.53860
H         -2.68610      -16.12010       13.82360
H         -2.40850      -16.40460       12.09770
H         -5.12470      -16.52010       13.50460
H         -4.85490      -16.81620       11.78450
H         -4.17610      -17.91850       12.98750
H         -3.45470      -11.87300       10.62470
H         -4.82000      -10.90270       14.15290
H         -5.39570       -9.01700       12.85050
H         -3.21250       -7.35930        9.92360
H         -3.68250       -7.71980       11.59150
H         -5.88930       -6.58280       11.18310
H         -5.38980       -6.23070        9.52790
H         -4.53960       -5.48610       10.88350
H         -6.26200      -11.75030       10.51420
H         -6.72860      -12.40660        8.20880
H         -6.87280      -12.24520        5.89800
H         -6.85060       -8.51840        6.70580
H         -4.43990       -4.87530        6.15700
H         -5.20350       -3.56050        8.09160
H         -9.95110       -3.64400        9.12320
H         -9.49760       -2.19320       10.03580
H        -10.26490       -1.56440        7.74270
H         -9.02630       -2.60300        7.03180
H         -8.55250       -1.17370        7.95490
H         -8.30480       -6.70560        5.92430
H         -5.56270       -7.90770       -0.06030
H         -4.68720       -9.13070       -2.00580
H         -2.08510      -13.17230       -1.17330
H         -2.50970      -13.44590       -2.87360
H         -4.17570      -14.55650       -1.38170
H         -4.52460      -13.01270       -0.60010
H         -4.93960      -13.25220       -2.30100
H         -3.18980      -10.37730        2.51320
H         -3.77070       -6.42380        0.63470
H         -3.87150       -1.90350        2.23830
H         -1.92220       -0.64350        2.99100
H         -2.36010        0.96660        4.79780
H         -4.88810        4.99480        3.69170
H         -5.05580        5.04340        5.45650
H         -6.08810        2.76290        5.42320
H         -7.02300        3.89400        4.43490
H         -5.95220        2.72220        3.66200
H         -3.49290        2.16980        0.16620
H         -0.42270       -4.46370       -1.61820
H         -0.12470       -6.12560       -3.36190
H         -0.76780       -8.41110       -6.19740
H         -0.01310       -7.76070       -4.73680
H         -2.15990       -8.93150       -4.17410
H         -3.02600       -7.89340       -5.31410
H         -2.32570       -7.20320       -3.84780
H         -2.08840       -1.74350       -4.47800
H         -0.01410       -0.49620       -3.64190
H          0.38410        3.88740       -1.73360
H          3.51960        6.93660       -1.29200
H          2.57180        7.97740        0.72320
H         -2.31960        7.38750        1.72550
H         -1.11930        6.07270        1.76790
H         -1.79090        7.93960        4.10070
H         -0.57550        6.65910        4.13800
H         -2.28290        6.24620        3.96220
H         -0.44340        6.00450       -2.62460
H          1.63690        2.69950       -7.29500
H          2.46330        1.38770       -9.19830
H          6.69450        0.90420      -11.72650
H          7.30050        1.34880      -10.12230
H          6.09650        3.54810      -10.29200
H          5.44990        3.07130      -11.86550
H          7.18750        3.34070      -11.66570
H          5.68400        3.50560       -6.14700
H          4.98540        5.68680       -6.86230
H          6.74820        7.12060       -7.48750
H          6.81970        7.99990       -9.79680
H          7.32100        6.06740      -11.23760
H         10.75950        2.58810      -11.38730
H         11.70960        3.93530      -10.73210
H          9.12410        2.84170       -9.48480
H         10.75420        2.47890       -8.90610
H         10.12740        4.12400       -8.80660
H         10.92590        8.11430       -8.58420
H          7.32890       14.00500       -6.96970
H          6.75990       15.82900       -5.47150
H          5.96710       17.39510       -4.26720
H          6.15600       18.17230       -2.69020
H          8.61390       17.91150       -2.79440
H          8.05120       18.79410       -4.21880
H          8.49560       17.08790       -4.34900
H          7.65570       11.34570       -3.62780
H          9.78120       13.55750       -6.89480
H         11.47730       13.08960       -8.81580
