
  xtb     03032208473D
 energy: -461.130113568460 gnorm: 0.000276407804 xtb: 6.4.1 (unknown)
233258  0     0  0            999 V2000
   -1.0353   -2.7989    9.6736 C   0  0  0  0  0  0  0  0  0  0  0  0
   -0.7672   -2.2914    8.4538 C   0  0  0  0  0  0  0  0  0  0  0  0
   -1.9376   -2.1038    7.6601 C   0  0  0  0  0  0  0  0  0  0  0  0
   -2.0305   -1.6596    6.3309 C   0  0  0  0  0  0  0  0  0  0  0  0
   -0.8288   -1.2628    5.6098 C   0  0  0  0  0  0  0  0  0  0  0  0
   -0.3431   -2.0448    4.1413 S   0  0  0  0  0  0  0  0  0  0  0  0
    1.0447   -1.0292    3.9660 C   0  0  0  0  0  0  0  0  0  0  0  0
    1.9542   -1.1226    2.7892 C   0  0  0  0  0  0  0  0  0  0  0  0
    1.8742   -2.4736    2.0921 C   0  0  0  0  0  0  0  0  0  0  0  0
    1.1221   -0.1521    5.0075 C   0  0  0  0  0  0  0  0  0  0  0  0
    2.3573    1.0293    5.1612 Cl  0  0  0  0  0  0  0  0  0  0  0  0
    0.0658   -0.2860    5.9459 C   0  0  0  0  0  0  0  0  0  0  0  0
   -0.1013    0.7366    7.3154 Cl  0  0  0  0  0  0  0  0  0  0  0  0
   -3.2946   -1.6261    5.7527 C   0  0  0  0  0  0  0  0  0  0  0  0
   -4.4608   -1.9700    6.4792 C   0  0  0  0  0  0  0  0  0  0  0  0
   -4.3605   -2.4583    7.7872 C   0  0  0  0  0  0  0  0  0  0  0  0
   -5.5415   -3.0402    8.4207 C   0  0  0  0  0  0  0  0  0  0  0  0
   -6.7855   -2.1218    9.2016 S   0  0  0  0  0  0  0  0  0  0  0  0
   -7.7577   -3.5295    9.4776 C   0  0  0  0  0  0  0  0  0  0  0  0
   -9.1034   -3.4288   10.1069 C   0  0  0  0  0  0  0  0  0  0  0  0
  -10.1781   -3.1205    9.0600 C   0  0  0  0  0  0  0  0  0  0  0  0
   -7.1378   -4.6356    8.9789 C   0  0  0  0  0  0  0  0  0  0  0  0
   -5.8806   -4.3597    8.3777 C   0  0  0  0  0  0  0  0  0  0  0  0
   -4.9103   -5.5668    7.6265 Cl  0  0  0  0  0  0  0  0  0  0  0  0
   -7.7911   -6.2326    9.0458 Cl  0  0  0  0  0  0  0  0  0  0  0  0
   -3.1001   -2.5136    8.3546 C   0  0  0  0  0  0  0  0  0  0  0  0
   -2.7190   -3.1000    9.9487 S   0  0  0  0  0  0  0  0  0  0  0  0
   -5.6394   -1.8479    5.7073 C   0  0  0  0  0  0  0  0  0  0  0  0
   -5.4110   -1.5239    4.4041 C   0  0  0  0  0  0  0  0  0  0  0  0
   -3.7023   -1.2094    4.1115 S   0  0  0  0  0  0  0  0  0  0  0  0
   -6.3438   -1.3940    3.3318 C   0  0  0  0  0  0  0  0  0  0  0  0
   -7.6003   -1.8875    3.2510 C   0  0  0  0  0  0  0  0  0  0  0  0
   -8.3309   -2.7783    4.0986 C   0  0  0  0  0  0  0  0  0  0  0  0
   -9.6846   -2.7689    3.9381 O   0  0  0  0  0  0  0  0  0  0  0  0
  -10.2360   -3.7222    4.7313 C   0  0  0  0  0  0  0  0  0  0  0  0
   -9.2288   -4.3362    5.4563 C   0  0  0  0  0  0  0  0  0  0  0  0
   -8.0081   -3.7664    5.0204 C   0  0  0  0  0  0  0  0  0  0  0  0
   -6.7654   -4.1741    5.3816 O   0  0  0  0  0  0  0  0  0  0  0  0
   -9.4139   -5.2762    6.4137 O   0  0  0  0  0  0  0  0  0  0  0  0
  -11.6537   -3.9068    4.7036 C   0  0  0  0  0  0  0  0  0  0  0  0
  -12.3530   -5.0205    5.0043 C   0  0  0  0  0  0  0  0  0  0  0  0
  -11.9031   -6.3480    5.3481 C   0  0  0  0  0  0  0  0  0  0  0  0
  -10.8526   -7.0483    4.8812 C   0  0  0  0  0  0  0  0  0  0  0  0
   -9.9655   -6.6065    3.8395 C   0  0  0  0  0  0  0  0  0  0  0  0
  -10.2620   -5.8882    2.7268 C   0  0  0  0  0  0  0  0  0  0  0  0
   -9.1242   -5.4121    2.0283 C   0  0  0  0  0  0  0  0  0  0  0  0
   -9.1002   -4.5360    0.9349 C   0  0  0  0  0  0  0  0  0  0  0  0
  -10.3213   -4.0674    0.3000 C   0  0  0  0  0  0  0  0  0  0  0  0
  -11.5679   -3.2792    1.2190 S   0  0  0  0  0  0  0  0  0  0  0  0
  -12.5452   -3.0188   -0.1874 C   0  0  0  0  0  0  0  0  0  0  0  0
  -13.8856   -2.3796   -0.0789 C   0  0  0  0  0  0  0  0  0  0  0  0
  -14.8792   -3.3044    0.6266 C   0  0  0  0  0  0  0  0  0  0  0  0
  -11.9271   -3.5191   -1.2937 C   0  0  0  0  0  0  0  0  0  0  0  0
  -12.5878   -3.4588   -2.8764 Cl  0  0  0  0  0  0  0  0  0  0  0  0
  -10.6607   -4.1047   -1.0227 C   0  0  0  0  0  0  0  0  0  0  0  0
   -9.7070   -4.8463   -2.2384 Cl  0  0  0  0  0  0  0  0  0  0  0  0
   -7.8571   -4.0580    0.5439 C   0  0  0  0  0  0  0  0  0  0  0  0
   -6.6552   -4.3934    1.2111 C   0  0  0  0  0  0  0  0  0  0  0  0
   -6.6666   -5.3382    2.2535 C   0  0  0  0  0  0  0  0  0  0  0  0
   -5.4625   -5.7098    2.9767 C   0  0  0  0  0  0  0  0  0  0  0  0
   -4.3660   -4.5060    3.5865 S   0  0  0  0  0  0  0  0  0  0  0  0
   -3.3843   -5.6778    4.3849 C   0  0  0  0  0  0  0  0  0  0  0  0
   -2.1530   -5.2899    5.1275 C   0  0  0  0  0  0  0  0  0  0  0  0
   -0.9054   -5.5019    4.2680 C   0  0  0  0  0  0  0  0  0  0  0  0
   -3.8734   -6.9322    4.1654 C   0  0  0  0  0  0  0  0  0  0  0  0
   -5.0494   -6.9558    3.3715 C   0  0  0  0  0  0  0  0  0  0  0  0
   -5.7825   -8.4270    2.8833 Cl  0  0  0  0  0  0  0  0  0  0  0  0
   -3.1581   -8.3583    4.7990 Cl  0  0  0  0  0  0  0  0  0  0  0  0
   -7.9125   -5.8326    2.6291 C   0  0  0  0  0  0  0  0  0  0  0  0
   -8.2345   -6.8639    3.9962 S   0  0  0  0  0  0  0  0  0  0  0  0
   -5.5616   -3.6378    0.7117 C   0  0  0  0  0  0  0  0  0  0  0  0
   -5.9021   -2.7904   -0.2930 C   0  0  0  0  0  0  0  0  0  0  0  0
   -7.5971   -2.8731   -0.7026 S   0  0  0  0  0  0  0  0  0  0  0  0
   -5.0284   -1.8436   -0.9410 C   0  0  0  0  0  0  0  0  0  0  0  0
   -4.6876   -1.7242   -2.2483 C   0  0  0  0  0  0  0  0  0  0  0  0
   -3.7058   -0.7223   -2.4856 C   0  0  0  0  0  0  0  0  0  0  0  0
   -3.0672   -0.4004   -3.6978 C   0  0  0  0  0  0  0  0  0  0  0  0
   -3.5092   -0.9780   -4.9535 C   0  0  0  0  0  0  0  0  0  0  0  0
   -2.3916   -1.6821   -6.0840 S   0  0  0  0  0  0  0  0  0  0  0  0
   -3.6490   -2.0688   -7.2064 C   0  0  0  0  0  0  0  0  0  0  0  0
   -3.3432   -2.6939   -8.5223 C   0  0  0  0  0  0  0  0  0  0  0  0
   -3.0379   -1.6228   -9.5725 C   0  0  0  0  0  0  0  0  0  0  0  0
   -4.8571   -1.6567   -6.7272 C   0  0  0  0  0  0  0  0  0  0  0  0
   -6.3381   -1.8556   -7.5708 Cl  0  0  0  0  0  0  0  0  0  0  0  0
   -4.7843   -1.0432   -5.4486 C   0  0  0  0  0  0  0  0  0  0  0  0
   -6.1622   -0.3788   -4.6696 Cl  0  0  0  0  0  0  0  0  0  0  0  0
   -1.9893    0.4763   -3.6261 C   0  0  0  0  0  0  0  0  0  0  0  0
   -1.6299    1.1319   -2.4258 C   0  0  0  0  0  0  0  0  0  0  0  0
   -2.3319    0.8927   -1.2347 C   0  0  0  0  0  0  0  0  0  0  0  0
   -1.9951    1.6149   -0.0208 C   0  0  0  0  0  0  0  0  0  0  0  0
   -1.9714    3.3552    0.0025 S   0  0  0  0  0  0  0  0  0  0  0  0
   -1.5537    3.4040    1.6811 C   0  0  0  0  0  0  0  0  0  0  0  0
   -1.2982    4.6936    2.3794 C   0  0  0  0  0  0  0  0  0  0  0  0
    0.1672    5.1102    2.2275 C   0  0  0  0  0  0  0  0  0  0  0  0
   -1.4339    2.1403    2.1771 C   0  0  0  0  0  0  0  0  0  0  0  0
   -1.6771    1.1247    1.2140 C   0  0  0  0  0  0  0  0  0  0  0  0
   -1.4760   -0.5377    1.5518 Cl  0  0  0  0  0  0  0  0  0  0  0  0
   -1.0514    1.7904    3.8123 Cl  0  0  0  0  0  0  0  0  0  0  0  0
   -3.3230   -0.0764   -1.2836 C   0  0  0  0  0  0  0  0  0  0  0  0
   -4.2123   -0.6809    0.0786 S   0  0  0  0  0  0  0  0  0  0  0  0
   -0.4515    1.8950   -2.5636 C   0  0  0  0  0  0  0  0  0  0  0  0
    0.1021    1.8268   -3.8095 C   0  0  0  0  0  0  0  0  0  0  0  0
   -0.8796    0.8815   -4.9102 S   0  0  0  0  0  0  0  0  0  0  0  0
    1.4153    2.2885   -4.1280 C   0  0  0  0  0  0  0  0  0  0  0  0
    2.2626    2.8716   -3.2291 C   0  0  0  0  0  0  0  0  0  0  0  0
    3.5919    2.9783   -3.6890 C   0  0  0  0  0  0  0  0  0  0  0  0
    4.7203    3.3450   -2.9352 C   0  0  0  0  0  0  0  0  0  0  0  0
    4.5891    3.6233   -1.5137 C   0  0  0  0  0  0  0  0  0  0  0  0
    5.2023    5.0854   -0.8020 S   0  0  0  0  0  0  0  0  0  0  0  0
    4.6084    4.6640    0.7701 C   0  0  0  0  0  0  0  0  0  0  0  0
    4.7722    5.5888    1.9251 C   0  0  0  0  0  0  0  0  0  0  0  0
    3.8597    6.8094    1.7905 C   0  0  0  0  0  0  0  0  0  0  0  0
    3.9786    3.4561    0.7305 C   0  0  0  0  0  0  0  0  0  0  0  0
    3.2455    2.6996    2.0881 Cl  0  0  0  0  0  0  0  0  0  0  0  0
    3.9751    2.8585   -0.5585 C   0  0  0  0  0  0  0  0  0  0  0  0
    3.3267    1.2898   -0.8295 Cl  0  0  0  0  0  0  0  0  0  0  0  0
    5.9373    3.3513   -3.5995 C   0  0  0  0  0  0  0  0  0  0  0  0
    6.0655    2.9838   -4.9627 C   0  0  0  0  0  0  0  0  0  0  0  0
    4.9391    2.5774   -5.7048 C   0  0  0  0  0  0  0  0  0  0  0  0
    5.0631    2.1566   -7.0899 C   0  0  0  0  0  0  0  0  0  0  0  0
    6.2441    0.9740   -7.5775 S   0  0  0  0  0  0  0  0  0  0  0  0
    5.7547    1.0467   -9.2344 C   0  0  0  0  0  0  0  0  0  0  0  0
    6.4684    0.2671  -10.2826 C   0  0  0  0  0  0  0  0  0  0  0  0
    7.6889    1.0368  -10.7940 C   0  0  0  0  0  0  0  0  0  0  0  0
    4.7380    1.9415   -9.3872 C   0  0  0  0  0  0  0  0  0  0  0  0
    4.3379    2.5661   -8.1754 C   0  0  0  0  0  0  0  0  0  0  0  0
    3.1301    3.7804   -8.1297 Cl  0  0  0  0  0  0  0  0  0  0  0  0
    3.9964    2.2967  -10.8933 Cl  0  0  0  0  0  0  0  0  0  0  0  0
    3.7206    2.5647   -5.0382 C   0  0  0  0  0  0  0  0  0  0  0  0
    2.2055    1.9604   -5.6529 S   0  0  0  0  0  0  0  0  0  0  0  0
    7.4116    3.0411   -5.3932 C   0  0  0  0  0  0  0  0  0  0  0  0
    8.2890    3.3923   -4.4083 C   0  0  0  0  0  0  0  0  0  0  0  0
    7.4831    3.7170   -2.8896 S   0  0  0  0  0  0  0  0  0  0  0  0
    9.7112    3.4472   -4.5209 C   0  0  0  0  0  0  0  0  0  0  0  0
   10.4525    3.0974   -5.6119 C   0  0  0  0  0  0  0  0  0  0  0  0
   11.8487    3.1896   -5.3997 C   0  0  0  0  0  0  0  0  0  0  0  0
   12.8815    2.8551   -6.2922 C   0  0  0  0  0  0  0  0  0  0  0  0
   12.5838    2.2363   -7.5727 C   0  0  0  0  0  0  0  0  0  0  0  0
   13.2192    2.8564   -9.0670 S   0  0  0  0  0  0  0  0  0  0  0  0
   12.4369    1.6276  -10.0008 C   0  0  0  0  0  0  0  0  0  0  0  0
   12.5294    1.6051  -11.4864 C   0  0  0  0  0  0  0  0  0  0  0  0
   11.4396    2.4768  -12.1156 C   0  0  0  0  0  0  0  0  0  0  0  0
   11.7264    0.7952   -9.1880 C   0  0  0  0  0  0  0  0  0  0  0  0
   10.8272   -0.5540   -9.7500 Cl  0  0  0  0  0  0  0  0  0  0  0  0
   11.8081    1.1338   -7.8115 C   0  0  0  0  0  0  0  0  0  0  0  0
   11.0625    0.1860   -6.5874 Cl  0  0  0  0  0  0  0  0  0  0  0  0
   14.1803    3.1175   -5.8746 C   0  0  0  0  0  0  0  0  0  0  0  0
   14.4861    3.6339   -4.5926 C   0  0  0  0  0  0  0  0  0  0  0  0
   13.4576    3.8834   -3.6701 C   0  0  0  0  0  0  0  0  0  0  0  0
   13.7426    4.3137   -2.3114 C   0  0  0  0  0  0  0  0  0  0  0  0
   12.9715    5.7084   -1.6182 S   0  0  0  0  0  0  0  0  0  0  0  0
   13.7816    5.4998   -0.1042 C   0  0  0  0  0  0  0  0  0  0  0  0
   13.5027    6.4001    1.0480 C   0  0  0  0  0  0  0  0  0  0  0  0
   12.2728    5.9199    1.8228 C   0  0  0  0  0  0  0  0  0  0  0  0
   14.5897    4.4028   -0.1448 C   0  0  0  0  0  0  0  0  0  0  0  0
   14.5750    3.7306   -1.3962 C   0  0  0  0  0  0  0  0  0  0  0  0
   15.4549    2.2839   -1.6775 Cl  0  0  0  0  0  0  0  0  0  0  0  0
   15.5458    3.8685    1.1766 Cl  0  0  0  0  0  0  0  0  0  0  0  0
   12.1552    3.6797   -4.1076 C   0  0  0  0  0  0  0  0  0  0  0  0
   10.7109    3.9407   -3.1719 S   0  0  0  0  0  0  0  0  0  0  0  0
   15.8880    3.8367   -4.4305 C   0  0  0  0  0  0  0  0  0  0  0  0
   16.5993    3.4627   -5.5129 C   0  0  0  0  0  0  0  0  0  0  0  0
   15.6271    2.8454   -6.8042 S   0  0  0  0  0  0  0  0  0  0  0  0
   -0.3414   -3.0314   10.4575 H   0  0  0  0  0  0  0  0  0  0  0  0
    0.2243   -2.0587    8.1118 H   0  0  0  0  0  0  0  0  0  0  0  0
    1.6872   -0.3323    2.0788 H   0  0  0  0  0  0  0  0  0  0  0  0
    2.9762   -0.9246    3.1234 H   0  0  0  0  0  0  0  0  0  0  0  0
    2.5569   -2.4999    1.2470 H   0  0  0  0  0  0  0  0  0  0  0  0
    0.8648   -2.6496    1.7269 H   0  0  0  0  0  0  0  0  0  0  0  0
    2.1371   -3.2749    2.7787 H   0  0  0  0  0  0  0  0  0  0  0  0
   -9.3357   -4.3747   10.5994 H   0  0  0  0  0  0  0  0  0  0  0  0
   -9.0910   -2.6377   10.8585 H   0  0  0  0  0  0  0  0  0  0  0  0
   -9.9484   -2.1900    8.5460 H   0  0  0  0  0  0  0  0  0  0  0  0
  -10.2405   -3.9191    8.3252 H   0  0  0  0  0  0  0  0  0  0  0  0
  -11.1462   -3.0203    9.5428 H   0  0  0  0  0  0  0  0  0  0  0  0
   -6.6225   -1.9524    6.1211 H   0  0  0  0  0  0  0  0  0  0  0  0
   -5.9862   -0.8195    2.4867 H   0  0  0  0  0  0  0  0  0  0  0  0
   -8.1984   -1.5706    2.4050 H   0  0  0  0  0  0  0  0  0  0  0  0
   -6.8051   -5.0639    5.7623 H   0  0  0  0  0  0  0  0  0  0  0  0
   -8.5865   -5.4743    6.8779 H   0  0  0  0  0  0  0  0  0  0  0  0
  -12.1953   -3.0267    4.3835 H   0  0  0  0  0  0  0  0  0  0  0  0
  -13.4317   -4.9121    5.0358 H   0  0  0  0  0  0  0  0  0  0  0  0
  -12.5385   -6.8505    6.0687 H   0  0  0  0  0  0  0  0  0  0  0  0
  -10.6255   -8.0090    5.3240 H   0  0  0  0  0  0  0  0  0  0  0  0
  -11.2723   -5.6736    2.4328 H   0  0  0  0  0  0  0  0  0  0  0  0
  -13.7999   -1.4468    0.4830 H   0  0  0  0  0  0  0  0  0  0  0  0
  -14.2423   -2.1484   -1.0837 H   0  0  0  0  0  0  0  0  0  0  0  0
  -15.8529   -2.8269    0.6937 H   0  0  0  0  0  0  0  0  0  0  0  0
  -14.5305   -3.5338    1.6310 H   0  0  0  0  0  0  0  0  0  0  0  0
  -14.9853   -4.2351    0.0747 H   0  0  0  0  0  0  0  0  0  0  0  0
   -2.0772   -5.8985    6.0317 H   0  0  0  0  0  0  0  0  0  0  0  0
   -2.2235   -4.2408    5.4182 H   0  0  0  0  0  0  0  0  0  0  0  0
   -0.0187   -5.2084    4.8228 H   0  0  0  0  0  0  0  0  0  0  0  0
   -0.9644   -4.8992    3.3656 H   0  0  0  0  0  0  0  0  0  0  0  0
   -0.8139   -6.5479    3.9877 H   0  0  0  0  0  0  0  0  0  0  0  0
   -4.5561   -3.7186    1.0814 H   0  0  0  0  0  0  0  0  0  0  0  0
   -5.0765   -2.3726   -3.0117 H   0  0  0  0  0  0  0  0  0  0  0  0
   -2.4827   -3.3565   -8.4174 H   0  0  0  0  0  0  0  0  0  0  0  0
   -4.2047   -3.2835   -8.8414 H   0  0  0  0  0  0  0  0  0  0  0  0
   -3.8942   -0.9653   -9.6991 H   0  0  0  0  0  0  0  0  0  0  0  0
   -2.8128   -2.0899  -10.5275 H   0  0  0  0  0  0  0  0  0  0  0  0
   -2.1830   -1.0256   -9.2643 H   0  0  0  0  0  0  0  0  0  0  0  0
   -1.9431    5.4688    1.9625 H   0  0  0  0  0  0  0  0  0  0  0  0
   -1.5340    4.5717    3.4382 H   0  0  0  0  0  0  0  0  0  0  0  0
    0.3430    6.0469    2.7502 H   0  0  0  0  0  0  0  0  0  0  0  0
    0.8205    4.3484    2.6451 H   0  0  0  0  0  0  0  0  0  0  0  0
    0.4141    5.2422    1.1760 H   0  0  0  0  0  0  0  0  0  0  0  0
   -0.0003    2.4153   -1.7410 H   0  0  0  0  0  0  0  0  0  0  0  0
    1.9544    3.1983   -2.2552 H   0  0  0  0  0  0  0  0  0  0  0  0
    4.5309    5.0463    2.8405 H   0  0  0  0  0  0  0  0  0  0  0  0
    5.8113    5.9201    1.9798 H   0  0  0  0  0  0  0  0  0  0  0  0
    4.0995    7.3602    0.8842 H   0  0  0  0  0  0  0  0  0  0  0  0
    3.9898    7.4682    2.6447 H   0  0  0  0  0  0  0  0  0  0  0  0
    2.8192    6.4984    1.7452 H   0  0  0  0  0  0  0  0  0  0  0  0
    5.7820    0.0776  -11.1098 H   0  0  0  0  0  0  0  0  0  0  0  0
    6.7924   -0.6887   -9.8677 H   0  0  0  0  0  0  0  0  0  0  0  0
    8.2030    0.4538  -11.5536 H   0  0  0  0  0  0  0  0  0  0  0  0
    8.3800    1.2304   -9.9768 H   0  0  0  0  0  0  0  0  0  0  0  0
    7.3831    1.9863  -11.2267 H   0  0  0  0  0  0  0  0  0  0  0  0
    7.7206    2.8211   -6.3969 H   0  0  0  0  0  0  0  0  0  0  0  0
   10.0185    2.7867   -6.5430 H   0  0  0  0  0  0  0  0  0  0  0  0
   13.5105    1.9705  -11.7933 H   0  0  0  0  0  0  0  0  0  0  0  0
   12.4153    0.5750  -11.8292 H   0  0  0  0  0  0  0  0  0  0  0  0
   11.5459    3.5078  -11.7873 H   0  0  0  0  0  0  0  0  0  0  0  0
   10.4554    2.1185  -11.8251 H   0  0  0  0  0  0  0  0  0  0  0  0
   11.5169    2.4456  -13.1989 H   0  0  0  0  0  0  0  0  0  0  0  0
   14.3720    6.4080    1.7080 H   0  0  0  0  0  0  0  0  0  0  0  0
   13.3292    7.4137    0.6829 H   0  0  0  0  0  0  0  0  0  0  0  0
   12.0728    6.5874    2.6566 H   0  0  0  0  0  0  0  0  0  0  0  0
   12.4399    4.9181    2.2102 H   0  0  0  0  0  0  0  0  0  0  0  0
   11.4018    5.9002    1.1720 H   0  0  0  0  0  0  0  0  0  0  0  0
   16.3266    4.2577   -3.5449 H   0  0  0  0  0  0  0  0  0  0  0  0
   17.6617    3.5105   -5.6514 H   0  0  0  0  0  0  0  0  0  0  0  0
  1  2  2  0  0  0  0
  2  3  1  0  0  0  0
  3  4  2  0  0  0  0
  4  5  1  0  0  0  0
  5  6  1  0  0  0  0
  6  7  1  0  0  0  0
  7  8  1  0  0  0  0
  8  9  1  0  0  0  0
  7 10  2  0  0  0  0
 10 11  1  0  0  0  0
 10 12  1  0  0  0  0
 12 13  1  0  0  0  0
  4 14  1  0  0  0  0
 14 15  2  0  0  0  0
 15 16  1  0  0  0  0
 16 17  1  0  0  0  0
 17 18  1  0  0  0  0
 18 19  1  0  0  0  0
 19 20  1  0  0  0  0
 20 21  1  0  0  0  0
 19 22  2  0  0  0  0
 22 23  1  0  0  0  0
 23 24  1  0  0  0  0
 22 25  1  0  0  0  0
 16 26  2  0  0  0  0
 26 27  1  0  0  0  0
 15 28  1  0  0  0  0
 28 29  2  0  0  0  0
 29 30  1  0  0  0  0
 29 31  1  0  0  0  0
 31 32  2  0  0  0  0
 32 33  1  0  0  0  0
 33 34  1  0  0  0  0
 34 35  1  0  0  0  0
 35 36  2  0  0  0  0
 36 37  1  0  0  0  0
 37 38  1  0  0  0  0
 36 39  1  0  0  0  0
 35 40  1  0  0  0  0
 40 41  2  0  0  0  0
 41 42  1  0  0  0  0
 42 43  2  0  0  0  0
 43 44  1  0  0  0  0
 44 45  2  0  0  0  0
 45 46  1  0  0  0  0
 46 47  2  0  0  0  0
 47 48  1  0  0  0  0
 48 49  1  0  0  0  0
 49 50  1  0  0  0  0
 50 51  1  0  0  0  0
 51 52  1  0  0  0  0
 50 53  2  0  0  0  0
 53 54  1  0  0  0  0
 53 55  1  0  0  0  0
 55 56  1  0  0  0  0
 47 57  1  0  0  0  0
 57 58  2  0  0  0  0
 58 59  1  0  0  0  0
 59 60  1  0  0  0  0
 60 61  1  0  0  0  0
 61 62  1  0  0  0  0
 62 63  1  0  0  0  0
 63 64  1  0  0  0  0
 62 65  2  0  0  0  0
 65 66  1  0  0  0  0
 66 67  1  0  0  0  0
 65 68  1  0  0  0  0
 59 69  2  0  0  0  0
 69 70  1  0  0  0  0
 58 71  1  0  0  0  0
 71 72  2  0  0  0  0
 72 73  1  0  0  0  0
 72 74  1  0  0  0  0
 74 75  2  0  0  0  0
 75 76  1  0  0  0  0
 76 77  2  0  0  0  0
 77 78  1  0  0  0  0
 78 79  1  0  0  0  0
 79 80  1  0  0  0  0
 80 81  1  0  0  0  0
 81 82  1  0  0  0  0
 80 83  2  0  0  0  0
 83 84  1  0  0  0  0
 83 85  1  0  0  0  0
 85 86  1  0  0  0  0
 77 87  1  0  0  0  0
 87 88  2  0  0  0  0
 88 89  1  0  0  0  0
 89 90  1  0  0  0  0
 90 91  1  0  0  0  0
 91 92  1  0  0  0  0
 92 93  1  0  0  0  0
 93 94  1  0  0  0  0
 92 95  2  0  0  0  0
 95 96  1  0  0  0  0
 96 97  1  0  0  0  0
 95 98  1  0  0  0  0
 89 99  2  0  0  0  0
 99100  1  0  0  0  0
 88101  1  0  0  0  0
101102  2  0  0  0  0
102103  1  0  0  0  0
102104  1  0  0  0  0
104105  2  0  0  0  0
105106  1  0  0  0  0
106107  2  0  0  0  0
107108  1  0  0  0  0
108109  1  0  0  0  0
109110  1  0  0  0  0
110111  1  0  0  0  0
111112  1  0  0  0  0
110113  2  0  0  0  0
113114  1  0  0  0  0
113115  1  0  0  0  0
115116  1  0  0  0  0
107117  1  0  0  0  0
117118  2  0  0  0  0
118119  1  0  0  0  0
119120  1  0  0  0  0
120121  1  0  0  0  0
121122  1  0  0  0  0
122123  1  0  0  0  0
123124  1  0  0  0  0
122125  2  0  0  0  0
125126  1  0  0  0  0
126127  1  0  0  0  0
125128  1  0  0  0  0
119129  2  0  0  0  0
129130  1  0  0  0  0
118131  1  0  0  0  0
131132  2  0  0  0  0
132133  1  0  0  0  0
132134  1  0  0  0  0
134135  2  0  0  0  0
135136  1  0  0  0  0
136137  2  0  0  0  0
137138  1  0  0  0  0
138139  1  0  0  0  0
139140  1  0  0  0  0
140141  1  0  0  0  0
141142  1  0  0  0  0
140143  2  0  0  0  0
143144  1  0  0  0  0
143145  1  0  0  0  0
145146  1  0  0  0  0
137147  1  0  0  0  0
147148  2  0  0  0  0
148149  1  0  0  0  0
149150  1  0  0  0  0
150151  1  0  0  0  0
151152  1  0  0  0  0
152153  1  0  0  0  0
153154  1  0  0  0  0
152155  2  0  0  0  0
155156  1  0  0  0  0
156157  1  0  0  0  0
155158  1  0  0  0  0
149159  2  0  0  0  0
159160  1  0  0  0  0
148161  1  0  0  0  0
161162  2  0  0  0  0
162163  1  0  0  0  0
 27  1  1  0  0  0  0
 37 33  2  0  0  0  0
 70 44  1  0  0  0  0
100 74  1  0  0  0  0
130104  1  0  0  0  0
160134  1  0  0  0  0
 26  3  1  0  0  0  0
 69 46  1  0  0  0  0
 99 76  1  0  0  0  0
129106  1  0  0  0  0
159136  1  0  0  0  0
 12  5  2  0  0  0  0
 30 14  1  0  0  0  0
 55 48  2  0  0  0  0
 73 57  1  0  0  0  0
 85 78  2  0  0  0  0
103 87  1  0  0  0  0
115108  2  0  0  0  0
133117  1  0  0  0  0
145138  2  0  0  0  0
163147  1  0  0  0  0
 23 17  2  0  0  0  0
 66 60  2  0  0  0  0
 96 90  2  0  0  0  0
126120  2  0  0  0  0
156150  2  0  0  0  0
  1164  1  0  0  0  0
  2165  1  0  0  0  0
  8166  1  0  0  0  0
  8167  1  0  0  0  0
  9168  1  0  0  0  0
  9169  1  0  0  0  0
  9170  1  0  0  0  0
 20171  1  0  0  0  0
 20172  1  0  0  0  0
 21173  1  0  0  0  0
 21174  1  0  0  0  0
 21175  1  0  0  0  0
 28176  1  0  0  0  0
 31177  1  0  0  0  0
 32178  1  0  0  0  0
 38179  1  0  0  0  0
 39180  1  0  0  0  0
 40181  1  0  0  0  0
 41182  1  0  0  0  0
 42183  1  0  0  0  0
 43184  1  0  0  0  0
 45185  1  0  0  0  0
 51186  1  0  0  0  0
 51187  1  0  0  0  0
 52188  1  0  0  0  0
 52189  1  0  0  0  0
 52190  1  0  0  0  0
 63191  1  0  0  0  0
 63192  1  0  0  0  0
 64193  1  0  0  0  0
 64194  1  0  0  0  0
 64195  1  0  0  0  0
 71196  1  0  0  0  0
 75197  1  0  0  0  0
 81198  1  0  0  0  0
 81199  1  0  0  0  0
 82200  1  0  0  0  0
 82201  1  0  0  0  0
 82202  1  0  0  0  0
 93203  1  0  0  0  0
 93204  1  0  0  0  0
 94205  1  0  0  0  0
 94206  1  0  0  0  0
 94207  1  0  0  0  0
101208  1  0  0  0  0
105209  1  0  0  0  0
111210  1  0  0  0  0
111211  1  0  0  0  0
112212  1  0  0  0  0
112213  1  0  0  0  0
112214  1  0  0  0  0
123215  1  0  0  0  0
123216  1  0  0  0  0
124217  1  0  0  0  0
124218  1  0  0  0  0
124219  1  0  0  0  0
131220  1  0  0  0  0
135221  1  0  0  0  0
141222  1  0  0  0  0
141223  1  0  0  0  0
142224  1  0  0  0  0
142225  1  0  0  0  0
142226  1  0  0  0  0
153227  1  0  0  0  0
153228  1  0  0  0  0
154229  1  0  0  0  0
154230  1  0  0  0  0
154231  1  0  0  0  0
161232  1  0  0  0  0
162233  1  0  0  0  0
M  END
