
  xtb     02282216173D
 energy: -175.789941700401 gnorm: 0.000815404894 xtb: 6.4.1 (unknown)
 86 91  0     0  0            999 V2000
    2.2261   -4.0775    6.1358 C   0  0  0  0  0  0  0  0  0  0  0  0
    0.9474   -3.1273    6.7340 S   0  0  0  0  0  0  0  0  0  0  0  0
    0.7544   -2.3288    5.2043 C   0  0  0  0  0  0  0  0  0  0  0  0
    1.6548   -2.8289    4.2695 C   0  0  0  0  0  0  0  0  0  0  0  0
    2.4968   -3.8486    4.8065 C   0  0  0  0  0  0  0  0  0  0  0  0
    3.4797   -4.6738    4.0947 C   0  0  0  0  0  0  0  0  0  0  0  0
    3.5960   -4.7874    2.8977 O   0  0  0  0  0  0  0  0  0  0  0  0
    4.2631   -5.3633    4.9419 O   0  0  0  0  0  0  0  0  0  0  0  0
    1.6142   -2.3113    3.0202 O   0  0  0  0  0  0  0  0  0  0  0  0
    2.8287   -2.0222    2.3483 C   0  0  0  0  0  0  0  0  0  0  0  0
   -0.1506   -1.2631    4.9502 C   0  0  0  0  0  0  0  0  0  0  0  0
   -0.0674   -0.4718    3.4099 S   0  0  0  0  0  0  0  0  0  0  0  0
   -1.2411    0.7128    3.8904 C   0  0  0  0  0  0  0  0  0  0  0  0
   -1.6816    0.4917    5.1911 C   0  0  0  0  0  0  0  0  0  0  0  0
   -1.0576   -0.6264    5.7926 C   0  0  0  0  0  0  0  0  0  0  0  0
   -1.2820   -1.1148    7.1712 C   0  0  0  0  0  0  0  0  0  0  0  0
   -1.0839   -0.4968    8.1844 O   0  0  0  0  0  0  0  0  0  0  0  0
   -1.7290   -2.3829    7.1827 O   0  0  0  0  0  0  0  0  0  0  0  0
   -2.6934    1.2631    5.6532 O   0  0  0  0  0  0  0  0  0  0  0  0
   -3.2662    1.0042    6.9128 C   0  0  0  0  0  0  0  0  0  0  0  0
   -1.6299    1.7065    2.9594 C   0  0  0  0  0  0  0  0  0  0  0  0
   -1.3144    1.3918    1.2723 S   0  0  0  0  0  0  0  0  0  0  0  0
   -1.9548    2.9318    0.7788 C   0  0  0  0  0  0  0  0  0  0  0  0
   -2.4381    3.6157    1.8942 C   0  0  0  0  0  0  0  0  0  0  0  0
   -2.2259    2.9439    3.1211 C   0  0  0  0  0  0  0  0  0  0  0  0
   -2.3269    3.5567    4.4679 C   0  0  0  0  0  0  0  0  0  0  0  0
   -1.3726    3.7571    5.1701 O   0  0  0  0  0  0  0  0  0  0  0  0
   -3.5676    3.9103    4.8333 O   0  0  0  0  0  0  0  0  0  0  0  0
   -2.9311    4.8867    1.7223 O   0  0  0  0  0  0  0  0  0  0  0  0
   -4.2939    5.0991    2.0793 C   0  0  0  0  0  0  0  0  0  0  0  0
   -2.0050    3.3936   -0.5527 C   0  0  0  0  0  0  0  0  0  0  0  0
   -1.3716    2.8864   -1.7256 C   0  0  0  0  0  0  0  0  0  0  0  0
   -1.6712    3.7349   -2.8542 C   0  0  0  0  0  0  0  0  0  0  0  0
   -2.4432    4.8075   -2.5407 C   0  0  0  0  0  0  0  0  0  0  0  0
   -2.9036    4.8391   -0.8624 S   0  0  0  0  0  3  0  0  0  0  0  0
   -4.5337    4.3018   -0.9688 O   0  0  0  0  0  0  0  0  0  0  0  0
   -1.1800    3.4804   -4.0821 O   0  0  0  0  0  0  0  0  0  0  0  0
   -0.5368    1.7787   -1.7414 C   0  0  0  0  0  0  0  0  0  0  0  0
    0.0581    1.1568   -2.8276 C   0  0  0  0  0  0  0  0  0  0  0  0
    0.8494    0.0331   -2.7028 C   0  0  0  0  0  0  0  0  0  0  0  0
    1.4960   -0.7325   -3.6876 C   0  0  0  0  0  0  0  0  0  0  0  0
    2.2104   -1.8157   -3.1120 C   0  0  0  0  0  0  0  0  0  0  0  0
    2.1025   -1.9074   -1.7384 C   0  0  0  0  0  0  0  0  0  0  0  0
    1.1030   -0.6973   -1.0724 S   0  0  0  0  0  3  0  0  0  0  0  0
   -0.3784   -1.4519   -0.8677 O   0  0  0  0  0  0  0  0  0  0  0  0
    3.0011   -2.6123   -3.8463 O   0  0  0  0  0  0  0  0  0  0  0  0
    1.5353   -0.3412   -5.0674 C   0  0  0  0  0  0  0  0  0  0  0  0
    1.5957   -1.1306   -6.1620 C   0  0  0  0  0  0  0  0  0  0  0  0
    1.3605   -2.5352   -6.2418 C   0  0  0  0  0  0  0  0  0  0  0  0
    0.3898   -3.3450   -5.0540 S   0  0  0  0  0  0  0  0  0  0  0  0
    0.4054   -4.8194   -5.9460 C   0  0  0  0  0  0  0  0  0  0  0  0
    1.1140   -4.7092   -7.1036 C   0  0  0  0  0  0  0  0  0  0  0  0
    1.6683   -3.3969   -7.2876 C   0  0  0  0  0  0  0  0  0  0  0  0
    2.4848   -3.0913   -8.4570 C   0  0  0  0  0  0  0  0  0  0  0  0
    2.6093   -3.7951   -9.4303 O   0  0  0  0  0  0  0  0  0  0  0  0
    3.1408   -1.9079   -8.3817 O   0  0  0  0  0  0  0  0  0  0  0  0
    1.3319   -5.6738   -8.0187 O   0  0  0  0  0  0  0  0  0  0  0  0
    0.7627   -6.9341   -7.7697 C   0  0  0  0  0  0  0  0  0  0  0  0
    2.7029   -4.7981    6.7684 H   0  0  0  0  0  0  0  0  0  0  0  0
    4.8714   -5.9238    4.4349 H   0  0  0  0  0  0  0  0  0  0  0  0
    2.5552   -1.3443    1.5406 H   0  0  0  0  0  0  0  0  0  0  0  0
    3.5385   -1.5292    3.0174 H   0  0  0  0  0  0  0  0  0  0  0  0
    3.2773   -2.9316    1.9452 H   0  0  0  0  0  0  0  0  0  0  0  0
   -1.8078   -2.7018    8.0960 H   0  0  0  0  0  0  0  0  0  0  0  0
   -3.5994   -0.0359    6.9901 H   0  0  0  0  0  0  0  0  0  0  0  0
   -4.1324    1.6625    6.9761 H   0  0  0  0  0  0  0  0  0  0  0  0
   -2.5709    1.2240    7.7270 H   0  0  0  0  0  0  0  0  0  0  0  0
   -3.5394    4.2941    5.7242 H   0  0  0  0  0  0  0  0  0  0  0  0
   -4.5227    4.6774    3.0564 H   0  0  0  0  0  0  0  0  0  0  0  0
   -4.4267    6.1790    2.0988 H   0  0  0  0  0  0  0  0  0  0  0  0
   -4.9574    4.6650    1.3275 H   0  0  0  0  0  0  0  0  0  0  0  0
   -2.7321    5.6091   -3.1922 H   0  0  0  0  0  0  0  0  0  0  0  0
   -4.6098    3.4660   -1.4409 H   0  0  0  0  0  0  0  0  0  0  0  0
   -1.4397    4.1806   -4.6941 H   0  0  0  0  0  0  0  0  0  0  0  0
   -0.3247    1.3451   -0.7755 H   0  0  0  0  0  0  0  0  0  0  0  0
   -0.1205    1.5353   -3.8215 H   0  0  0  0  0  0  0  0  0  0  0  0
    2.6428   -2.5781   -1.1010 H   0  0  0  0  0  0  0  0  0  0  0  0
   -0.8362   -1.1152   -0.0897 H   0  0  0  0  0  0  0  0  0  0  0  0
    3.4252   -3.2722   -3.2843 H   0  0  0  0  0  0  0  0  0  0  0  0
    1.5397    0.7300   -5.2295 H   0  0  0  0  0  0  0  0  0  0  0  0
    1.7841   -0.6540   -7.1130 H   0  0  0  0  0  0  0  0  0  0  0  0
   -0.1150   -5.6662   -5.5482 H   0  0  0  0  0  0  0  0  0  0  0  0
    3.6695   -1.8017   -9.1878 H   0  0  0  0  0  0  0  0  0  0  0  0
    1.0474   -7.5601   -8.6132 H   0  0  0  0  0  0  0  0  0  0  0  0
   -0.3294   -6.8746   -7.7103 H   0  0  0  0  0  0  0  0  0  0  0  0
    1.1483   -7.3709   -6.8419 H   0  0  0  0  0  0  0  0  0  0  0  0
  1  2  1  0  0  0  0
  2  3  1  0  0  0  0
  3  4  2  0  0  0  0
  4  5  1  0  0  0  0
  5  6  1  0  0  0  0
  6  7  2  0  0  0  0
  6  8  1  0  0  0  0
  4  9  1  0  0  0  0
  9 10  1  0  0  0  0
  3 11  1  0  0  0  0
 11 12  1  0  0  0  0
 12 13  1  0  0  0  0
 13 14  2  0  0  0  0
 14 15  1  0  0  0  0
 15 16  1  0  0  0  0
 16 17  2  0  0  0  0
 16 18  1  0  0  0  0
 14 19  1  0  0  0  0
 19 20  1  0  0  0  0
 13 21  1  0  0  0  0
 21 22  1  0  0  0  0
 22 23  1  0  0  0  0
 23 24  2  0  0  0  0
 24 25  1  0  0  0  0
 25 26  1  0  0  0  0
 26 27  2  0  0  0  0
 26 28  1  0  0  0  0
 24 29  1  0  0  0  0
 29 30  1  0  0  0  0
 23 31  1  0  0  0  0
 31 32  2  0  0  0  0
 32 33  1  0  0  0  0
 33 34  2  0  0  0  0
 34 35  1  0  0  0  0
 35 36  1  0  0  0  0
 33 37  1  0  0  0  0
 32 38  1  0  0  0  0
 38 39  2  0  0  0  0
 39 40  1  0  0  0  0
 40 41  2  0  0  0  0
 41 42  1  0  0  0  0
 42 43  2  0  0  0  0
 43 44  1  0  0  0  0
 44 45  1  0  0  0  0
 42 46  1  0  0  0  0
 41 47  1  0  0  0  0
 47 48  2  0  0  0  0
 48 49  1  0  0  0  0
 49 50  1  0  0  0  0
 50 51  1  0  0  0  0
 51 52  2  0  0  0  0
 52 53  1  0  0  0  0
 53 54  1  0  0  0  0
 54 55  2  0  0  0  0
 54 56  1  0  0  0  0
 52 57  1  0  0  0  0
 57 58  1  0  0  0  0
  5  1  2  0  0  0  0
 15 11  2  0  0  0  0
 25 21  2  0  0  0  0
 35 31  1  0  0  0  0
 44 40  1  0  0  0  0
 53 49  2  0  0  0  0
  1 59  1  0  0  0  0
  8 60  1  0  0  0  0
 10 61  1  0  0  0  0
 10 62  1  0  0  0  0
 10 63  1  0  0  0  0
 18 64  1  0  0  0  0
 20 65  1  0  0  0  0
 20 66  1  0  0  0  0
 20 67  1  0  0  0  0
 28 68  1  0  0  0  0
 30 69  1  0  0  0  0
 30 70  1  0  0  0  0
 30 71  1  0  0  0  0
 34 72  1  0  0  0  0
 36 73  1  0  0  0  0
 37 74  1  0  0  0  0
 38 75  1  0  0  0  0
 39 76  1  0  0  0  0
 43 77  1  0  0  0  0
 45 78  1  0  0  0  0
 46 79  1  0  0  0  0
 47 80  1  0  0  0  0
 48 81  1  0  0  0  0
 51 82  1  0  0  0  0
 56 83  1  0  0  0  0
 58 84  1  0  0  0  0
 58 85  1  0  0  0  0
 58 86  1  0  0  0  0
M  END
