240

C         -2.55370        5.68540        2.78740
C         -2.32590        4.43530        2.33710
C         -2.83890        3.43250        3.21000
C         -2.84600        2.04580        3.00760
C         -2.20840        1.49300        1.81320
S         -0.47720        1.44980        1.66140
C         -0.55460        0.79740        0.05930
C          0.68410        0.45510       -0.69140
C          1.30900       -0.84610       -0.18640
C         -1.85230        0.63100       -0.31820
Cl        -2.33960        0.00730       -1.84070
C         -2.79240        1.03040        0.67210
Cl        -4.48490        0.96390        0.41730
C         -3.50630        1.27400        3.95110
C         -4.15890        1.84060        5.07480
C         -4.16950        3.22840        5.26610
C         -4.94700        3.86250        6.32030
S         -4.22920        5.02980        7.38960
C         -5.73910        5.37020        8.16310
C         -5.82630        6.33020        9.29730
C         -5.42930        5.66000       10.61470
C         -6.72940        4.61010        7.61830
C         -6.28600        3.75440        6.57480
Cl        -7.37370        2.75780        5.69970
Cl        -8.37440        4.68370        8.10310
C         -3.47880        3.99690        4.33560
S         -3.39550        5.73470        4.29600
C         -4.81840        0.84640        5.85080
C         -4.74930       -0.39990        5.32120
S         -3.72730       -0.45610        3.89670
C         -5.49900       -1.52470        5.88470
C         -5.05390       -2.13870        7.00710
S         -6.21550       -3.15680        7.77030
C         -7.40490       -2.71260        6.57460
C         -6.86830       -1.87850        5.56520
C         -7.65610       -1.53470        4.45610
C         -7.01480       -0.97970        3.21580
C         -6.88870        0.53940        3.16760
C         -9.01900       -1.87160        4.49460
C         -9.51460       -2.66010        5.56210
C         -8.72290       -3.13800        6.59360
C         -9.24090       -4.08430        7.63210
C         -9.02210       -5.53370        7.19590
S        -11.21150       -3.02510        5.38970
C        -11.27150       -2.12150        3.92450
C        -10.09080       -1.56860        3.56370
C         -9.93790       -0.74310        2.36930
C         -9.77180        0.59880        2.31210
C         -9.25210        1.05610        1.06340
C         -8.57810        2.26980        0.82230
C         -8.60160        3.33270        1.81760
S        -10.13070        3.92030        2.41230
C         -9.37870        5.04750        3.48690
C        -10.17680        5.96240        4.34840
C        -10.38520        7.31710        3.66830
C         -8.02410        4.97300        3.36940
Cl        -6.93890        5.95380        4.26700
C         -7.57770        3.99690        2.43710
Cl        -5.91000        3.65740        2.24280
C         -7.81700        2.34140       -0.34060
C         -7.80420        1.30420       -1.30810
C         -8.50190        0.10910       -1.08070
C         -8.40670       -1.01450       -2.00090
S         -9.83300       -1.73050       -2.68850
C         -8.91260       -2.89360       -3.58030
C         -9.57420       -3.85970       -4.49950
C         -9.86980       -3.21150       -5.85410
C         -7.58100       -2.72280       -3.34710
C         -7.28900       -1.66510       -2.44370
Cl        -5.69160       -1.31610       -1.92060
Cl        -6.35080       -3.68220       -4.06260
C         -9.16920       -0.00060        0.12930
S         -9.73830       -1.50640        0.79930
C         -6.88780        1.55930       -2.35400
C         -6.13410        2.67790       -2.15240
S         -6.67520        3.59170       -0.76110
C         -4.87480        2.92030       -2.78090
C         -3.79530        3.57670       -2.26590
C         -2.58330        3.29430       -2.94710
C         -1.27090        3.64590       -2.57210
C         -0.99820        4.63330       -1.54670
S          0.25750        4.38880       -0.36510
C          0.01210        5.94770        0.34340
C          0.84560        6.42020        1.48410
C          1.28000        5.28040        2.39870
C         -0.98660        6.60760       -0.30990
Cl        -1.50710        8.19410        0.09650
C         -1.56240        5.87050       -1.37880
Cl        -2.77070        6.53720       -2.39860
C         -0.23720        2.97140       -3.21370
C         -0.45030        2.05020       -4.26660
C         -1.75540        1.76090       -4.69700
C         -2.00230        0.75550       -5.71850
S         -2.96420        1.11310       -7.12100
C         -2.75530       -0.47790       -7.76830
C         -3.31960       -0.85640       -9.09300
C         -2.33490       -0.53150      -10.21890
C         -1.98190       -1.22940       -6.93530
C         -1.56230       -0.53940       -5.76670
Cl        -0.66690       -1.32070       -4.52570
Cl        -1.53680       -2.85780       -7.24800
C         -2.78840        2.38950       -4.01950
S         -4.46870        1.99190       -4.21110
C          0.74900        1.43290       -4.69070
C          1.83330        1.79140       -3.94430
S          1.45300        3.06100       -2.79930
C          3.07410        1.09150       -3.87440
C          3.33160       -0.12550       -4.43760
C          4.54700       -0.70330       -4.00600
C          5.06770       -1.96390       -4.34990
C          4.35050       -2.83790       -5.26450
S          3.83260       -2.28810       -6.83230
C          3.06090       -3.79270       -7.19730
C          2.39030       -4.02310       -8.50630
C          3.37520       -4.57760       -9.53800
C          3.21830       -4.66550       -6.16280
Cl         2.58830       -6.26110       -6.15760
C          3.94280       -4.12830       -5.06450
Cl         4.17960       -5.00360       -3.61060
C          6.26290       -2.33310       -3.74740
C          6.92810       -1.51220       -2.80170
C          6.38390       -0.27110       -2.42450
C          7.00900        0.54060       -1.39250
S          8.69370        0.97110       -1.46390
C          8.62560        1.82540        0.03950
C          9.82480        2.51570        0.58760
C         10.04310        3.86710       -0.09620
C          7.36240        1.78240        0.54770
C          6.44540        1.05100       -0.25540
Cl         4.82890        0.77300        0.23790
Cl         6.89890        2.51830        2.02710
C          5.20930        0.11400       -3.05520
S          4.34780        1.60270       -2.79310
C          8.10000       -2.12750       -2.30610
C          8.35240       -3.34880       -2.86000
S          7.13730       -3.81220       -4.02580
C          9.44530       -4.20030       -2.51110
C         10.57190       -3.81170       -1.84860
C         11.43400       -4.88560       -1.52260
C         12.62880       -4.83820       -0.78430
C         13.07610       -3.59240       -0.18640
S         14.69570       -3.00230       -0.41440
C         14.38800       -1.56720        0.50200
C         15.46260       -0.56970        0.75890
C         16.32120       -0.99320        1.95330
C         13.10540       -1.56670        0.96280
Cl        12.42580       -0.30440        1.90710
C         12.35810       -2.71060        0.57640
Cl        10.74590       -2.96900        1.11340
C         13.33180       -6.02970       -0.65480
C         12.86430       -7.25860       -1.17920
C         11.63080       -7.31720       -1.84740
C         11.07580       -8.57890       -2.30910
S         10.53260       -8.79090       -3.94640
C         10.03210      -10.42050       -3.65130
C          9.47250      -11.26460       -4.74250
C         10.58980      -11.90280       -5.57120
C         10.28220      -10.76700       -2.35690
C         10.86930       -9.72440       -1.59120
Cl        11.19800       -9.88310        0.08620
Cl         9.91900      -12.30590       -1.68940
C         10.95230       -6.11820       -2.02460
S          9.41800       -5.92110       -2.82460
C         13.78610       -8.31810       -0.93210
C         14.86690       -7.91910       -0.23230
S         14.85080       -6.23630        0.17080
H         -2.28910        6.61390        2.32170
H         -1.83470        4.20410        1.41050
H          1.40720        1.26620       -0.58170
H          0.43080        0.35040       -1.74840
H          1.57310       -0.75530        0.86460
H          0.61150       -1.67240       -0.30100
H          2.20880       -1.06910       -0.75450
H         -5.16400        7.17640        9.10660
H         -6.85220        6.69660        9.36670
H         -4.40770        5.29200       10.55680
H         -5.49860        6.37270       11.43200
H         -6.08950        4.82240       10.82590
H         -5.37370        1.06590        6.74450
H         -4.08780       -2.02380        7.45980
H         -6.02140       -1.42140        3.11650
H         -7.59050       -1.31290        2.35350
H         -7.82460        1.01540        3.43180
H         -6.60900        0.84750        2.16450
H         -6.14160        0.90460        3.85610
H         -8.71870       -3.90750        8.57520
H        -10.30780       -3.90740        7.78390
H         -9.54400       -5.72970        6.26210
H         -7.96200       -5.72730        7.04910
H         -9.39790       -6.21540        7.95420
H        -12.20570       -2.03490        3.40390
H         -9.93110        1.23680        3.16310
H         -9.64410        6.10700        5.29100
H        -11.14470        5.50550        4.56040
H         -9.42650        7.78590        3.46210
H        -10.96290        7.97320        4.31380
H        -10.91990        7.19070        2.72980
H         -8.91300       -4.71680       -4.63960
H        -10.50710       -4.20580       -4.05130
H        -10.52820       -2.35550       -5.72610
H        -10.35150       -3.92780       -6.51400
H         -8.94690       -2.87410       -6.31920
H         -6.72420        0.89090       -3.17890
H         -3.85370        4.16060       -1.36460
H          0.27560        7.16310        2.04630
H          1.73410        6.92150        1.08590
H          1.88150        5.66740        3.21670
H          0.41340        4.77160        2.81340
H          1.87200        4.55520        1.84530
H         -3.53110       -1.92750       -9.09190
H         -4.25220       -0.31450       -9.25670
H         -2.11460        0.53320      -10.23160
H         -1.40600       -1.07770      -10.07540
H         -2.75970       -0.81210      -11.17880
H          0.79680        0.72030       -5.49100
H          2.64800       -0.61590       -5.10380
H          1.97210       -3.08240       -8.86860
H          1.57510       -4.73450       -8.36040
H          4.19140       -3.87650       -9.69570
H          2.86910       -4.74400      -10.48510
H          3.78930       -5.52150       -9.19300
H          9.68040        2.66470        1.65910
H         10.70490        1.88710        0.43900
H         10.91810        4.35870        0.32010
H          9.17820        4.50870        0.05300
H         10.19390        3.72930       -1.16440
H          8.71950       -1.69580       -1.54340
H         10.79130       -2.78550       -1.62370
H         15.00150        0.39830        0.96340
H         16.09310       -0.47850       -0.12700
H         17.10190       -0.25870        2.13100
H         15.70890       -1.07440        2.84780
H         16.78460       -1.95780        1.76060
H          8.84630      -10.64880       -5.39030
H          8.85460      -12.04660       -4.29750
H         11.21290      -12.53310       -4.94170
H         11.21330      -11.13280       -6.01930
H         10.16460      -12.51330       -6.36300
H         13.63910       -9.32350       -1.28050
H         15.70250       -8.51200        0.08420
