
  xtb     03012222513D
 energy: -453.103208179536 gnorm: 0.000238864012 xtb: 6.4.1 (unknown)
229255  0     0  0            999 V2000
    4.3969   -5.4303    5.0726 C   0  0  0  0  0  0  0  0  0  0  0  0
    3.6104   -5.1871    6.1403 C   0  0  0  0  0  0  0  0  0  0  0  0
    2.2205   -5.2234    5.8250 C   0  0  0  0  0  0  0  0  0  0  0  0
    1.1254   -5.0150    6.6812 C   0  0  0  0  0  0  0  0  0  0  0  0
    1.3049   -4.6245    8.0700 C   0  0  0  0  0  0  0  0  0  0  0  0
    0.5286   -5.4937    9.3593 S   0  0  0  0  0  0  0  0  0  0  0  0
    1.1816   -4.4397   10.5673 C   0  0  0  0  0  0  0  0  0  0  0  0
    0.8360   -4.6145   12.0047 C   0  0  0  0  0  0  0  0  0  0  0  0
   -0.5626   -4.0668   12.2986 C   0  0  0  0  0  0  0  0  0  0  0  0
    1.9442   -3.4703    9.9881 C   0  0  0  0  0  0  0  0  0  0  0  0
    2.7482   -2.2310   10.8627 Cl  0  0  0  0  0  0  0  0  0  0  0  0
    2.0207   -3.5742    8.5727 C   0  0  0  0  0  0  0  0  0  0  0  0
    2.8640   -2.4318    7.6075 Cl  0  0  0  0  0  0  0  0  0  0  0  0
   -0.1402   -5.1632    6.1329 C   0  0  0  0  0  0  0  0  0  0  0  0
   -0.3531   -5.4935    4.7742 C   0  0  0  0  0  0  0  0  0  0  0  0
    0.7404   -5.7014    3.9151 C   0  0  0  0  0  0  0  0  0  0  0  0
    0.5169   -6.0502    2.5228 C   0  0  0  0  0  0  0  0  0  0  0  0
    1.1983   -5.1192    1.2251 S   0  0  0  0  0  0  0  0  0  0  0  0
    0.4162   -6.0779    0.0164 C   0  0  0  0  0  0  0  0  0  0  0  0
    0.5252   -5.7580   -1.4345 C   0  0  0  0  0  0  0  0  0  0  0  0
   -0.6416   -4.8784   -1.8918 C   0  0  0  0  0  0  0  0  0  0  0  0
   -0.3208   -7.0650    0.6017 C   0  0  0  0  0  0  0  0  0  0  0  0
   -0.2668   -7.0528    2.0200 C   0  0  0  0  0  0  0  0  0  0  0  0
   -1.0561   -8.2335    2.9852 Cl  0  0  0  0  0  0  0  0  0  0  0  0
   -1.2293   -8.2240   -0.2756 Cl  0  0  0  0  0  0  0  0  0  0  0  0
    2.0055   -5.5380    4.4622 C   0  0  0  0  0  0  0  0  0  0  0  0
    3.5136   -5.7358    3.6153 S   0  0  0  0  0  0  0  0  0  0  0  0
   -1.7223   -5.4744    4.4356 C   0  0  0  0  0  0  0  0  0  0  0  0
   -2.5557   -5.1467    5.4712 C   0  0  0  0  0  0  0  0  0  0  0  0
   -1.6528   -4.8684    6.9512 S   0  0  0  0  0  0  0  0  0  0  0  0
   -3.9577   -4.9673    5.3334 C   0  0  0  0  0  0  0  0  0  0  0  0
   -4.6545   -5.4208    3.8135 S   0  0  0  0  0  0  0  0  0  0  0  0
   -6.1685   -4.6661    4.1746 C   0  0  0  0  0  0  0  0  0  0  0  0
   -6.1648   -4.1473    5.4685 C   0  0  0  0  0  0  0  0  0  0  0  0
   -4.9113   -4.3341    6.1388 C   0  0  0  0  0  0  0  0  0  0  0  0
   -4.7401   -3.8641    7.4552 C   0  0  0  0  0  0  0  0  0  0  0  0
   -5.7834   -3.2344    8.0852 C   0  0  0  0  0  0  0  0  0  0  0  0
   -5.7458   -2.7405    9.3479 O   0  0  0  0  0  0  0  0  0  0  0  0
   -4.5491   -2.8627   10.0798 C   0  0  0  0  0  0  0  0  0  0  0  0
   -7.0301   -3.0638    7.4216 C   0  0  0  0  0  0  0  0  0  0  0  0
   -7.2219   -3.5054    6.1504 C   0  0  0  0  0  0  0  0  0  0  0  0
   -7.0460   -4.4910    3.0647 C   0  0  0  0  0  0  0  0  0  0  0  0
   -7.7836   -3.3964    2.7061 C   0  0  0  0  0  0  0  0  0  0  0  0
   -8.1176   -3.3731    1.3270 C   0  0  0  0  0  0  0  0  0  0  0  0
   -8.5939   -2.2738    0.5857 C   0  0  0  0  0  0  0  0  0  0  0  0
   -9.0530   -1.0728    1.2703 C   0  0  0  0  0  0  0  0  0  0  0  0
  -10.4136   -1.1460    2.3515 S   0  0  0  0  0  0  0  0  0  0  0  0
  -10.3180    0.5439    2.7127 C   0  0  0  0  0  0  0  0  0  0  0  0
  -11.3114    1.2048    3.6032 C   0  0  0  0  0  0  0  0  0  0  0  0
  -12.5189    1.6969    2.8014 C   0  0  0  0  0  0  0  0  0  0  0  0
   -9.2878    1.1149    2.0280 C   0  0  0  0  0  0  0  0  0  0  0  0
   -8.8773    2.7775    2.1325 Cl  0  0  0  0  0  0  0  0  0  0  0  0
   -8.5624    0.2008    1.2158 C   0  0  0  0  0  0  0  0  0  0  0  0
   -7.1619    0.6634    0.3417 Cl  0  0  0  0  0  0  0  0  0  0  0  0
   -8.4970   -2.3530   -0.7975 C   0  0  0  0  0  0  0  0  0  0  0  0
   -8.0328   -3.5178   -1.4570 C   0  0  0  0  0  0  0  0  0  0  0  0
   -7.6214   -4.6400   -0.7235 C   0  0  0  0  0  0  0  0  0  0  0  0
   -6.9761   -5.7549   -1.4104 C   0  0  0  0  0  0  0  0  0  0  0  0
   -7.8439   -6.8137   -2.4760 S   0  0  0  0  0  0  0  0  0  0  0  0
   -6.4024   -7.6673   -2.9244 C   0  0  0  0  0  0  0  0  0  0  0  0
   -6.4468   -8.7932   -3.8981 C   0  0  0  0  0  0  0  0  0  0  0  0
   -7.0540   -8.3629   -5.2328 C   0  0  0  0  0  0  0  0  0  0  0  0
   -5.3239   -7.1416   -2.2797 C   0  0  0  0  0  0  0  0  0  0  0  0
   -5.6449   -6.0567   -1.4189 C   0  0  0  0  0  0  0  0  0  0  0  0
   -4.4557   -5.1878   -0.5416 Cl  0  0  0  0  0  0  0  0  0  0  0  0
   -3.7173   -7.7069   -2.4667 Cl  0  0  0  0  0  0  0  0  0  0  0  0
   -7.6454   -4.5279    0.6529 C   0  0  0  0  0  0  0  0  0  0  0  0
   -6.8999   -5.6479    1.7499 S   0  0  0  0  0  0  0  0  0  0  0  0
   -7.7567   -3.2900   -2.8216 C   0  0  0  0  0  0  0  0  0  0  0  0
   -7.9200   -1.9885   -3.2019 C   0  0  0  0  0  0  0  0  0  0  0  0
   -8.6706   -1.0332   -1.9318 S   0  0  0  0  0  0  0  0  0  0  0  0
   -7.1715   -1.3847   -4.2567 C   0  0  0  0  0  0  0  0  0  0  0  0
   -6.8934   -0.0658   -4.4673 C   0  0  0  0  0  0  0  0  0  0  0  0
   -5.6714    0.1497   -5.1594 C   0  0  0  0  0  0  0  0  0  0  0  0
   -5.0015    1.3725   -5.3658 C   0  0  0  0  0  0  0  0  0  0  0  0
   -5.7116    2.6259   -5.2274 C   0  0  0  0  0  0  0  0  0  0  0  0
   -5.0426    3.9938   -4.3869 S   0  0  0  0  0  0  0  0  0  0  0  0
   -6.4491    4.9580   -4.6732 C   0  0  0  0  0  0  0  0  0  0  0  0
   -6.5169    6.3747   -4.2219 C   0  0  0  0  0  0  0  0  0  0  0  0
   -5.8737    7.3036   -5.2547 C   0  0  0  0  0  0  0  0  0  0  0  0
   -7.3696    4.2553   -5.3936 C   0  0  0  0  0  0  0  0  0  0  0  0
   -8.8862    4.8903   -5.8857 Cl  0  0  0  0  0  0  0  0  0  0  0  0
   -6.9611    2.9323   -5.7027 C   0  0  0  0  0  0  0  0  0  0  0  0
   -7.9210    1.8797   -6.6588 Cl  0  0  0  0  0  0  0  0  0  0  0  0
   -3.6359    1.2930   -5.6275 C   0  0  0  0  0  0  0  0  0  0  0  0
   -2.9574    0.0613   -5.7930 C   0  0  0  0  0  0  0  0  0  0  0  0
   -3.6748   -1.1493   -5.8039 C   0  0  0  0  0  0  0  0  0  0  0  0
   -3.0101   -2.4186   -6.0355 C   0  0  0  0  0  0  0  0  0  0  0  0
   -3.2284   -3.7752   -4.9658 S   0  0  0  0  0  0  0  0  0  0  0  0
   -2.1592   -4.7752   -5.8883 C   0  0  0  0  0  0  0  0  0  0  0  0
   -1.9477   -6.2024   -5.5222 C   0  0  0  0  0  0  0  0  0  0  0  0
   -3.1418   -7.0525   -5.9616 C   0  0  0  0  0  0  0  0  0  0  0  0
   -1.6726   -4.0878   -6.9604 C   0  0  0  0  0  0  0  0  0  0  0  0
   -2.1433   -2.7496   -7.0412 C   0  0  0  0  0  0  0  0  0  0  0  0
   -1.7174   -1.6974   -8.3288 Cl  0  0  0  0  0  0  0  0  0  0  0  0
   -0.5921   -4.7524   -8.1176 Cl  0  0  0  0  0  0  0  0  0  0  0  0
   -5.0127   -1.0690   -5.4506 C   0  0  0  0  0  0  0  0  0  0  0  0
   -6.0232   -2.4346   -5.0839 S   0  0  0  0  0  0  0  0  0  0  0  0
   -1.5510    0.2208   -5.7637 C   0  0  0  0  0  0  0  0  0  0  0  0
   -1.1551    1.5154   -5.6152 C   0  0  0  0  0  0  0  0  0  0  0  0
   -2.5116    2.6256   -5.6093 S   0  0  0  0  0  0  0  0  0  0  0  0
    0.1558    1.9539   -5.2342 C   0  0  0  0  0  0  0  0  0  0  0  0
    0.9770    1.2466   -4.4069 C   0  0  0  0  0  0  0  0  0  0  0  0
    2.1218    1.9684   -3.9945 C   0  0  0  0  0  0  0  0  0  0  0  0
    3.0756    1.5933   -3.0320 C   0  0  0  0  0  0  0  0  0  0  0  0
    2.9073    0.3901   -2.2350 C   0  0  0  0  0  0  0  0  0  0  0  0
    4.1904   -0.7616   -2.0098 S   0  0  0  0  0  0  0  0  0  0  0  0
    3.2217   -1.7645   -0.9853 C   0  0  0  0  0  0  0  0  0  0  0  0
    3.7673   -3.0023   -0.3630 C   0  0  0  0  0  0  0  0  0  0  0  0
    4.1462   -2.7663    1.1004 C   0  0  0  0  0  0  0  0  0  0  0  0
    1.9823   -1.2188   -0.8262 C   0  0  0  0  0  0  0  0  0  0  0  0
    0.7432   -1.9189    0.1315 Cl  0  0  0  0  0  0  0  0  0  0  0  0
    1.7997    0.0004   -1.5305 C   0  0  0  0  0  0  0  0  0  0  0  0
    0.3507    0.9152   -1.4081 Cl  0  0  0  0  0  0  0  0  0  0  0  0
    4.1348    2.4665   -2.8306 C   0  0  0  0  0  0  0  0  0  0  0  0
    4.2564    3.7027   -3.5118 C   0  0  0  0  0  0  0  0  0  0  0  0
    3.2468    4.1198   -4.3983 C   0  0  0  0  0  0  0  0  0  0  0  0
    3.2931    5.4313   -5.0211 C   0  0  0  0  0  0  0  0  0  0  0  0
    3.1167    5.6244   -6.7398 S   0  0  0  0  0  0  0  0  0  0  0  0
    3.2945    7.3423   -6.6436 C   0  0  0  0  0  0  0  0  0  0  0  0
    3.2970    8.1901   -7.8674 C   0  0  0  0  0  0  0  0  0  0  0  0
    4.7007    8.2747   -8.4718 C   0  0  0  0  0  0  0  0  0  0  0  0
    3.4807    7.7282   -5.3494 C   0  0  0  0  0  0  0  0  0  0  0  0
    3.4745    6.6497   -4.4255 C   0  0  0  0  0  0  0  0  0  0  0  0
    3.5954    6.8903   -2.7297 Cl  0  0  0  0  0  0  0  0  0  0  0  0
    3.6979    9.3584   -4.8593 Cl  0  0  0  0  0  0  0  0  0  0  0  0
    2.2003    3.2347   -4.6229 C   0  0  0  0  0  0  0  0  0  0  0  0
    0.7977    3.5346   -5.6143 S   0  0  0  0  0  0  0  0  0  0  0  0
    5.4378    4.3923   -3.1402 C   0  0  0  0  0  0  0  0  0  0  0  0
    6.1600    3.7533   -2.1777 C   0  0  0  0  0  0  0  0  0  0  0  0
    5.4350    2.2306   -1.6999 S   0  0  0  0  0  0  0  0  0  0  0  0
    7.3636    4.1833   -1.5471 C   0  0  0  0  0  0  0  0  0  0  0  0
    8.0516    3.5337   -0.5668 C   0  0  0  0  0  0  0  0  0  0  0  0
    9.2122    4.2226   -0.1367 C   0  0  0  0  0  0  0  0  0  0  0  0
   10.1180    3.8501    0.8711 C   0  0  0  0  0  0  0  0  0  0  0  0
    9.9422    2.6156    1.6175 C   0  0  0  0  0  0  0  0  0  0  0  0
    9.7429    1.0900    0.8056 S   0  0  0  0  0  0  0  0  0  0  0  0
    9.5865    0.2246    2.2962 C   0  0  0  0  0  0  0  0  0  0  0  0
    9.3046   -1.2371    2.3062 C   0  0  0  0  0  0  0  0  0  0  0  0
    7.8385   -1.5109    1.9613 C   0  0  0  0  0  0  0  0  0  0  0  0
    9.6850    1.0811    3.3513 C   0  0  0  0  0  0  0  0  0  0  0  0
    9.5685    0.5969    4.9934 Cl  0  0  0  0  0  0  0  0  0  0  0  0
    9.8936    2.4352    2.9721 C   0  0  0  0  0  0  0  0  0  0  0  0
    9.9740    3.7054    4.1192 Cl  0  0  0  0  0  0  0  0  0  0  0  0
   11.1823    4.7120    1.1099 C   0  0  0  0  0  0  0  0  0  0  0  0
   11.3561    5.9320    0.4127 C   0  0  0  0  0  0  0  0  0  0  0  0
   10.4184    6.3301   -0.5533 C   0  0  0  0  0  0  0  0  0  0  0  0
   10.5168    7.6153   -1.2244 C   0  0  0  0  0  0  0  0  0  0  0  0
   10.4415    7.7479   -2.9554 S   0  0  0  0  0  0  0  0  0  0  0  0
   10.5734    9.4729   -2.9069 C   0  0  0  0  0  0  0  0  0  0  0  0
   10.5080   10.2807   -4.1555 C   0  0  0  0  0  0  0  0  0  0  0  0
    9.0621   10.4093   -4.6412 C   0  0  0  0  0  0  0  0  0  0  0  0
   10.6617    9.9058   -1.6177 C   0  0  0  0  0  0  0  0  0  0  0  0
   10.6352    8.8556   -0.6607 C   0  0  0  0  0  0  0  0  0  0  0  0
   10.6613    9.1476    1.0306 Cl  0  0  0  0  0  0  0  0  0  0  0  0
   10.7951   11.5562   -1.1661 Cl  0  0  0  0  0  0  0  0  0  0  0  0
    9.3808    5.4479   -0.8254 C   0  0  0  0  0  0  0  0  0  0  0  0
    8.1081    5.7065   -1.9862 S   0  0  0  0  0  0  0  0  0  0  0  0
   12.5648    6.5852    0.7917 C   0  0  0  0  0  0  0  0  0  0  0  0
   13.2574    5.9021    1.7257 C   0  0  0  0  0  0  0  0  0  0  0  0
   12.4979    4.4277    2.2128 S   0  0  0  0  0  0  0  0  0  0  0  0
    5.4683   -5.4577    5.0365 H   0  0  0  0  0  0  0  0  0  0  0  0
    3.9891   -4.9979    7.1275 H   0  0  0  0  0  0  0  0  0  0  0  0
    1.5743   -4.0849   12.6089 H   0  0  0  0  0  0  0  0  0  0  0  0
    0.8698   -5.6752   12.2606 H   0  0  0  0  0  0  0  0  0  0  0  0
   -0.6097   -3.0067   12.0622 H   0  0  0  0  0  0  0  0  0  0  0  0
   -1.3044   -4.5897   11.6994 H   0  0  0  0  0  0  0  0  0  0  0  0
   -0.8032   -4.2009   13.3496 H   0  0  0  0  0  0  0  0  0  0  0  0
    0.5197   -6.6920   -2.0012 H   0  0  0  0  0  0  0  0  0  0  0  0
    1.4672   -5.2405   -1.6240 H   0  0  0  0  0  0  0  0  0  0  0  0
   -1.5863   -5.3948   -1.7444 H   0  0  0  0  0  0  0  0  0  0  0  0
   -0.6627   -3.9524   -1.3232 H   0  0  0  0  0  0  0  0  0  0  0  0
   -0.5357   -4.6347   -2.9460 H   0  0  0  0  0  0  0  0  0  0  0  0
   -2.0860   -5.6441    3.4386 H   0  0  0  0  0  0  0  0  0  0  0  0
   -3.7926   -4.0198    7.9426 H   0  0  0  0  0  0  0  0  0  0  0  0
   -3.7208   -2.3495    9.5814 H   0  0  0  0  0  0  0  0  0  0  0  0
   -4.7418   -2.3909   11.0417 H   0  0  0  0  0  0  0  0  0  0  0  0
   -4.2815   -3.9124   10.2362 H   0  0  0  0  0  0  0  0  0  0  0  0
   -7.8178   -2.5746    7.9720 H   0  0  0  0  0  0  0  0  0  0  0  0
   -8.1753   -3.3886    5.6592 H   0  0  0  0  0  0  0  0  0  0  0  0
   -7.9624   -2.5683    3.3675 H   0  0  0  0  0  0  0  0  0  0  0  0
  -10.8314    2.0527    4.0956 H   0  0  0  0  0  0  0  0  0  0  0  0
  -11.6432    0.4975    4.3649 H   0  0  0  0  0  0  0  0  0  0  0  0
  -13.2330    2.1813    3.4616 H   0  0  0  0  0  0  0  0  0  0  0  0
  -13.0097    0.8618    2.3073 H   0  0  0  0  0  0  0  0  0  0  0  0
  -12.2024    2.4108    2.0454 H   0  0  0  0  0  0  0  0  0  0  0  0
   -7.0426   -9.6095   -3.4808 H   0  0  0  0  0  0  0  0  0  0  0  0
   -5.4288   -9.1564   -4.0487 H   0  0  0  0  0  0  0  0  0  0  0  0
   -8.0750   -8.0176   -5.0880 H   0  0  0  0  0  0  0  0  0  0  0  0
   -7.0637   -9.1999   -5.9254 H   0  0  0  0  0  0  0  0  0  0  0  0
   -6.4742   -7.5554   -5.6728 H   0  0  0  0  0  0  0  0  0  0  0  0
   -7.3149   -4.0323   -3.4618 H   0  0  0  0  0  0  0  0  0  0  0  0
   -7.4730    0.7264   -4.0276 H   0  0  0  0  0  0  0  0  0  0  0  0
   -5.9970    6.4765   -3.2680 H   0  0  0  0  0  0  0  0  0  0  0  0
   -7.5639    6.6502   -4.0830 H   0  0  0  0  0  0  0  0  0  0  0  0
   -5.9316    8.3346   -4.9164 H   0  0  0  0  0  0  0  0  0  0  0  0
   -4.8285    7.0402   -5.3988 H   0  0  0  0  0  0  0  0  0  0  0  0
   -6.3884    7.2201   -6.2085 H   0  0  0  0  0  0  0  0  0  0  0  0
   -1.0381   -6.5603   -6.0070 H   0  0  0  0  0  0  0  0  0  0  0  0
   -1.8299   -6.2900   -4.4410 H   0  0  0  0  0  0  0  0  0  0  0  0
   -3.2754   -6.9927   -7.0389 H   0  0  0  0  0  0  0  0  0  0  0  0
   -2.9810   -8.0908   -5.6854 H   0  0  0  0  0  0  0  0  0  0  0  0
   -4.0471   -6.6976   -5.4751 H   0  0  0  0  0  0  0  0  0  0  0  0
   -0.8617   -0.6024   -5.7985 H   0  0  0  0  0  0  0  0  0  0  0  0
    0.7492    0.2523   -4.0716 H   0  0  0  0  0  0  0  0  0  0  0  0
    4.6443   -3.3288   -0.9228 H   0  0  0  0  0  0  0  0  0  0  0  0
    3.0079   -3.7862   -0.4043 H   0  0  0  0  0  0  0  0  0  0  0  0
    4.5451   -3.6809    1.5295 H   0  0  0  0  0  0  0  0  0  0  0  0
    3.2694   -2.4749    1.6715 H   0  0  0  0  0  0  0  0  0  0  0  0
    4.8943   -1.9817    1.1781 H   0  0  0  0  0  0  0  0  0  0  0  0
    2.6093    7.7675   -8.6015 H   0  0  0  0  0  0  0  0  0  0  0  0
    2.9540    9.1914   -7.6002 H   0  0  0  0  0  0  0  0  0  0  0  0
    4.6866    8.8987   -9.3612 H   0  0  0  0  0  0  0  0  0  0  0  0
    5.0537    7.2833   -8.7454 H   0  0  0  0  0  0  0  0  0  0  0  0
    5.3943    8.7057   -7.7542 H   0  0  0  0  0  0  0  0  0  0  0  0
    5.7500    5.3259   -3.5714 H   0  0  0  0  0  0  0  0  0  0  0  0
    7.7271    2.5911   -0.1652 H   0  0  0  0  0  0  0  0  0  0  0  0
    9.9461   -1.7373    1.5782 H   0  0  0  0  0  0  0  0  0  0  0  0
    9.5301   -1.6288    3.2993 H   0  0  0  0  0  0  0  0  0  0  0  0
    7.1856   -1.0332    2.6879 H   0  0  0  0  0  0  0  0  0  0  0  0
    7.6060   -1.1208    0.9727 H   0  0  0  0  0  0  0  0  0  0  0  0
    7.6455   -2.5802    1.9700 H   0  0  0  0  0  0  0  0  0  0  0  0
   11.1089    9.8021   -4.9311 H   0  0  0  0  0  0  0  0  0  0  0  0
   10.9196   11.2711   -3.9543 H   0  0  0  0  0  0  0  0  0  0  0  0
    9.0250   10.9984   -5.5535 H   0  0  0  0  0  0  0  0  0  0  0  0
    8.6439    9.4256   -4.8409 H   0  0  0  0  0  0  0  0  0  0  0  0
    8.4525   10.8982   -3.8854 H   0  0  0  0  0  0  0  0  0  0  0  0
   12.8969    7.5124    0.3630 H   0  0  0  0  0  0  0  0  0  0  0  0
   14.1925    6.1693    2.1779 H   0  0  0  0  0  0  0  0  0  0  0  0
  1  2  2  0  0  0  0
  2  3  1  0  0  0  0
  3  4  2  0  0  0  0
  4  5  1  0  0  0  0
  5  6  1  0  0  0  0
  6  7  1  0  0  0  0
  7  8  1  0  0  0  0
  8  9  1  0  0  0  0
  7 10  2  0  0  0  0
 10 11  1  0  0  0  0
 10 12  1  0  0  0  0
 12 13  1  0  0  0  0
  4 14  1  0  0  0  0
 14 15  2  0  0  0  0
 15 16  1  0  0  0  0
 16 17  1  0  0  0  0
 17 18  1  0  0  0  0
 18 19  1  0  0  0  0
 19 20  1  0  0  0  0
 20 21  1  0  0  0  0
 19 22  2  0  0  0  0
 22 23  1  0  0  0  0
 23 24  1  0  0  0  0
 22 25  1  0  0  0  0
 16 26  2  0  0  0  0
 26 27  1  0  0  0  0
 15 28  1  0  0  0  0
 28 29  2  0  0  0  0
 29 30  1  0  0  0  0
 29 31  1  0  0  0  0
 31 32  1  0  0  0  0
 32 33  1  0  0  0  0
 33 34  2  0  0  0  0
 34 35  1  0  0  0  0
 35 36  1  0  0  0  0
 36 37  2  0  0  0  0
 37 38  1  0  0  0  0
 38 39  1  0  0  0  0
 37 40  1  0  0  0  0
 40 41  2  0  0  0  0
 33 42  1  0  0  0  0
 42 43  2  0  0  0  0
 43 44  1  0  0  0  0
 44 45  2  0  0  0  0
 45 46  1  0  0  0  0
 46 47  1  0  0  0  0
 47 48  1  0  0  0  0
 48 49  1  0  0  0  0
 49 50  1  0  0  0  0
 48 51  2  0  0  0  0
 51 52  1  0  0  0  0
 51 53  1  0  0  0  0
 53 54  1  0  0  0  0
 45 55  1  0  0  0  0
 55 56  2  0  0  0  0
 56 57  1  0  0  0  0
 57 58  1  0  0  0  0
 58 59  1  0  0  0  0
 59 60  1  0  0  0  0
 60 61  1  0  0  0  0
 61 62  1  0  0  0  0
 60 63  2  0  0  0  0
 63 64  1  0  0  0  0
 64 65  1  0  0  0  0
 63 66  1  0  0  0  0
 57 67  2  0  0  0  0
 67 68  1  0  0  0  0
 56 69  1  0  0  0  0
 69 70  2  0  0  0  0
 70 71  1  0  0  0  0
 70 72  1  0  0  0  0
 72 73  2  0  0  0  0
 73 74  1  0  0  0  0
 74 75  2  0  0  0  0
 75 76  1  0  0  0  0
 76 77  1  0  0  0  0
 77 78  1  0  0  0  0
 78 79  1  0  0  0  0
 79 80  1  0  0  0  0
 78 81  2  0  0  0  0
 81 82  1  0  0  0  0
 81 83  1  0  0  0  0
 83 84  1  0  0  0  0
 75 85  1  0  0  0  0
 85 86  2  0  0  0  0
 86 87  1  0  0  0  0
 87 88  1  0  0  0  0
 88 89  1  0  0  0  0
 89 90  1  0  0  0  0
 90 91  1  0  0  0  0
 91 92  1  0  0  0  0
 90 93  2  0  0  0  0
 93 94  1  0  0  0  0
 94 95  1  0  0  0  0
 93 96  1  0  0  0  0
 87 97  2  0  0  0  0
 97 98  1  0  0  0  0
 86 99  1  0  0  0  0
 99100  2  0  0  0  0
100101  1  0  0  0  0
100102  1  0  0  0  0
102103  2  0  0  0  0
103104  1  0  0  0  0
104105  2  0  0  0  0
105106  1  0  0  0  0
106107  1  0  0  0  0
107108  1  0  0  0  0
108109  1  0  0  0  0
109110  1  0  0  0  0
108111  2  0  0  0  0
111112  1  0  0  0  0
111113  1  0  0  0  0
113114  1  0  0  0  0
105115  1  0  0  0  0
115116  2  0  0  0  0
116117  1  0  0  0  0
117118  1  0  0  0  0
118119  1  0  0  0  0
119120  1  0  0  0  0
120121  1  0  0  0  0
121122  1  0  0  0  0
120123  2  0  0  0  0
123124  1  0  0  0  0
124125  1  0  0  0  0
123126  1  0  0  0  0
117127  2  0  0  0  0
127128  1  0  0  0  0
116129  1  0  0  0  0
129130  2  0  0  0  0
130131  1  0  0  0  0
130132  1  0  0  0  0
132133  2  0  0  0  0
133134  1  0  0  0  0
134135  2  0  0  0  0
135136  1  0  0  0  0
136137  1  0  0  0  0
137138  1  0  0  0  0
138139  1  0  0  0  0
139140  1  0  0  0  0
138141  2  0  0  0  0
141142  1  0  0  0  0
141143  1  0  0  0  0
143144  1  0  0  0  0
135145  1  0  0  0  0
145146  2  0  0  0  0
146147  1  0  0  0  0
147148  1  0  0  0  0
148149  1  0  0  0  0
149150  1  0  0  0  0
150151  1  0  0  0  0
151152  1  0  0  0  0
150153  2  0  0  0  0
153154  1  0  0  0  0
154155  1  0  0  0  0
153156  1  0  0  0  0
147157  2  0  0  0  0
157158  1  0  0  0  0
146159  1  0  0  0  0
159160  2  0  0  0  0
160161  1  0  0  0  0
 27  1  1  0  0  0  0
 35 31  2  0  0  0  0
 68 42  1  0  0  0  0
 98 72  1  0  0  0  0
128102  1  0  0  0  0
158132  1  0  0  0  0
 26  3  1  0  0  0  0
 41 34  1  0  0  0  0
 67 44  1  0  0  0  0
 97 74  1  0  0  0  0
127104  1  0  0  0  0
157134  1  0  0  0  0
 12  5  2  0  0  0  0
 30 14  1  0  0  0  0
 53 46  2  0  0  0  0
 71 55  1  0  0  0  0
 83 76  2  0  0  0  0
101 85  1  0  0  0  0
113106  2  0  0  0  0
131115  1  0  0  0  0
143136  2  0  0  0  0
161145  1  0  0  0  0
 23 17  2  0  0  0  0
 64 58  2  0  0  0  0
 94 88  2  0  0  0  0
124118  2  0  0  0  0
154148  2  0  0  0  0
  1162  1  0  0  0  0
  2163  1  0  0  0  0
  8164  1  0  0  0  0
  8165  1  0  0  0  0
  9166  1  0  0  0  0
  9167  1  0  0  0  0
  9168  1  0  0  0  0
 20169  1  0  0  0  0
 20170  1  0  0  0  0
 21171  1  0  0  0  0
 21172  1  0  0  0  0
 21173  1  0  0  0  0
 28174  1  0  0  0  0
 36175  1  0  0  0  0
 39176  1  0  0  0  0
 39177  1  0  0  0  0
 39178  1  0  0  0  0
 40179  1  0  0  0  0
 41180  1  0  0  0  0
 43181  1  0  0  0  0
 49182  1  0  0  0  0
 49183  1  0  0  0  0
 50184  1  0  0  0  0
 50185  1  0  0  0  0
 50186  1  0  0  0  0
 61187  1  0  0  0  0
 61188  1  0  0  0  0
 62189  1  0  0  0  0
 62190  1  0  0  0  0
 62191  1  0  0  0  0
 69192  1  0  0  0  0
 73193  1  0  0  0  0
 79194  1  0  0  0  0
 79195  1  0  0  0  0
 80196  1  0  0  0  0
 80197  1  0  0  0  0
 80198  1  0  0  0  0
 91199  1  0  0  0  0
 91200  1  0  0  0  0
 92201  1  0  0  0  0
 92202  1  0  0  0  0
 92203  1  0  0  0  0
 99204  1  0  0  0  0
103205  1  0  0  0  0
109206  1  0  0  0  0
109207  1  0  0  0  0
110208  1  0  0  0  0
110209  1  0  0  0  0
110210  1  0  0  0  0
121211  1  0  0  0  0
121212  1  0  0  0  0
122213  1  0  0  0  0
122214  1  0  0  0  0
122215  1  0  0  0  0
129216  1  0  0  0  0
133217  1  0  0  0  0
139218  1  0  0  0  0
139219  1  0  0  0  0
140220  1  0  0  0  0
140221  1  0  0  0  0
140222  1  0  0  0  0
151223  1  0  0  0  0
151224  1  0  0  0  0
152225  1  0  0  0  0
152226  1  0  0  0  0
152227  1  0  0  0  0
159228  1  0  0  0  0
160229  1  0  0  0  0
M  END
