
  xtb     03012215313D
 energy: -164.417070273243 gnorm: 0.000302198341 xtb: 6.4.1 (unknown)
 89100  0     0  0            999 V2000
   -2.0997    0.3531    9.5520 C   0  0  0  0  0  0  0  0  0  0  0  0
   -3.6922    0.6388    8.9530 S   0  0  0  0  0  0  0  0  0  0  0  0
   -3.0907    1.6290    7.6392 C   0  0  0  0  0  0  0  0  0  0  0  0
   -1.7255    1.7143    7.7120 C   0  0  0  0  0  0  0  0  0  0  0  0
   -1.1684    0.9840    8.7970 C   0  0  0  0  0  0  0  0  0  0  0  0
    0.5774    1.0198    8.9609 S   0  0  0  0  0  0  0  0  0  0  0  0
    0.7404    2.5276    7.9491 C   0  0  0  0  0  0  0  0  0  0  0  0
   -0.6034    2.6159    6.7160 S   0  0  0  0  0  0  0  0  0  0  0  0
   -3.9995    2.2944    6.7501 C   0  0  0  0  0  0  0  0  0  0  0  0
   -3.8059    2.5111    5.4349 C   0  0  0  0  0  0  0  0  0  0  0  0
   -2.8104    1.9298    4.5933 C   0  0  0  0  0  0  0  0  0  0  0  0
   -2.0415    0.3852    4.9005 S   0  0  0  0  0  0  0  0  0  0  0  0
   -1.1674    0.4309    3.3854 C   0  0  0  0  0  0  0  0  0  0  0  0
   -1.4853    1.5825    2.7002 C   0  0  0  0  0  0  0  0  0  0  0  0
   -2.4150    2.4040    3.3645 C   0  0  0  0  0  0  0  0  0  0  0  0
   -2.9238    3.8629    2.5408 S   0  0  0  0  0  0  0  0  0  0  0  0
   -1.5580    3.8060    1.3313 C   0  0  0  0  0  0  0  0  0  0  0  0
   -0.9347    2.1019    1.1229 S   0  0  0  0  0  0  0  0  0  0  0  0
   -0.2892   -0.5912    2.9588 C   0  0  0  0  0  0  0  0  0  0  0  0
   -0.0367   -1.7377    3.6332 C   0  0  0  0  0  0  0  0  0  0  0  0
    0.8156   -2.7526    3.1401 C   0  0  0  0  0  0  0  0  0  0  0  0
    1.6981   -2.5611    1.6385 S   0  0  0  0  0  0  0  0  0  0  0  0
    2.3331   -4.1902    1.6988 C   0  0  0  0  0  0  0  0  0  0  0  0
    1.9007   -4.7980    2.8615 C   0  0  0  0  0  0  0  0  0  0  0  0
    1.0536   -4.0055    3.6589 C   0  0  0  0  0  0  0  0  0  0  0  0
    0.4686   -4.7016    5.1540 S   0  0  0  0  0  0  0  0  0  0  0  0
    0.9324   -6.4037    4.6845 C   0  0  0  0  0  0  0  0  0  0  0  0
    2.2818   -6.4009    3.4564 S   0  0  0  0  0  0  0  0  0  0  0  0
    3.2610   -4.7632    0.7873 C   0  0  0  0  0  0  0  0  0  0  0  0
    3.7021   -4.3305   -0.4210 C   0  0  0  0  0  0  0  0  0  0  0  0
    3.2318   -3.2678   -1.2410 C   0  0  0  0  0  0  0  0  0  0  0  0
    1.5775   -2.7703   -1.2946 S   0  0  0  0  0  0  0  0  0  0  0  0
    1.8715   -1.5523   -2.4877 C   0  0  0  0  0  0  0  0  0  0  0  0
    3.2162   -1.5461   -2.8657 C   0  0  0  0  0  0  0  0  0  0  0  0
    3.9805   -2.5420   -2.1794 C   0  0  0  0  0  0  0  0  0  0  0  0
    5.3644   -2.6626   -2.4188 C   0  0  0  0  0  0  0  0  0  0  0  0
    5.9712   -1.8106   -3.3055 C   0  0  0  0  0  0  0  0  0  0  0  0
    7.2906   -1.8240   -3.6330 O   0  0  0  0  0  0  0  0  0  0  0  0
    8.1192   -2.7954   -3.0436 C   0  0  0  0  0  0  0  0  0  0  0  0
    5.2173   -0.7959   -3.9534 C   0  0  0  0  0  0  0  0  0  0  0  0
    3.8821   -0.6588   -3.7392 C   0  0  0  0  0  0  0  0  0  0  0  0
    0.7755   -0.7096   -2.8267 C   0  0  0  0  0  0  0  0  0  0  0  0
   -0.4259   -0.4010   -1.5831 S   0  0  0  0  0  0  0  0  0  0  0  0
   -1.4051    0.5776   -2.6522 C   0  0  0  0  0  0  0  0  0  0  0  0
   -0.8031    0.6514   -3.8886 C   0  0  0  0  0  0  0  0  0  0  0  0
    0.4125   -0.0702   -3.9865 C   0  0  0  0  0  0  0  0  0  0  0  0
    1.1453   -0.1324   -5.5801 S   0  0  0  0  0  0  0  0  0  0  0  0
    0.3075    1.3824   -6.1418 C   0  0  0  0  0  0  0  0  0  0  0  0
   -1.3033    1.5556   -5.3010 S   0  0  0  0  0  0  0  0  0  0  0  0
   -2.5723    1.2126   -2.1379 C   0  0  0  0  0  0  0  0  0  0  0  0
   -3.6749    1.5914   -2.8209 C   0  0  0  0  0  0  0  0  0  0  0  0
   -4.0518    1.1998   -4.1383 C   0  0  0  0  0  0  0  0  0  0  0  0
   -5.0982    2.2361   -5.0829 S   0  0  0  0  0  0  0  0  0  0  0  0
   -5.1730    1.0979   -6.4065 C   0  0  0  0  0  0  0  0  0  0  0  0
   -4.4411   -0.0196   -6.0988 C   0  0  0  0  0  0  0  0  0  0  0  0
   -3.8109    0.0345   -4.8313 C   0  0  0  0  0  0  0  0  0  0  0  0
   -2.9248   -1.3865   -4.3237 S   0  0  0  0  0  0  0  0  0  0  0  0
   -3.6708   -2.4614   -5.5947 C   0  0  0  0  0  0  0  0  0  0  0  0
   -4.1841   -1.4760   -7.0373 S   0  0  0  0  0  0  0  0  0  0  0  0
   -5.9321    1.4310   -7.5779 C   0  0  0  0  0  0  0  0  0  0  0  0
   -5.9455    0.7322   -8.7107 C   0  0  0  0  0  0  0  0  0  0  0  0
   -1.9502   -0.2663   10.4118 H   0  0  0  0  0  0  0  0  0  0  0  0
    1.6940    2.5044    7.4276 H   0  0  0  0  0  0  0  0  0  0  0  0
    0.6828    3.4008    8.6000 H   0  0  0  0  0  0  0  0  0  0  0  0
   -4.9025    2.6721    7.2104 H   0  0  0  0  0  0  0  0  0  0  0  0
   -4.4911    3.1687    4.9133 H   0  0  0  0  0  0  0  0  0  0  0  0
   -1.9190    4.1699    0.3718 H   0  0  0  0  0  0  0  0  0  0  0  0
   -0.7445    4.4355    1.6935 H   0  0  0  0  0  0  0  0  0  0  0  0
    0.1889   -0.4185    2.0014 H   0  0  0  0  0  0  0  0  0  0  0  0
   -0.5192   -1.9310    4.5832 H   0  0  0  0  0  0  0  0  0  0  0  0
    1.2636   -6.9377    5.5720 H   0  0  0  0  0  0  0  0  0  0  0  0
    0.0631   -6.8971    4.2479 H   0  0  0  0  0  0  0  0  0  0  0  0
    3.7117   -5.6699    1.1762 H   0  0  0  0  0  0  0  0  0  0  0  0
    4.5418   -4.8731   -0.8393 H   0  0  0  0  0  0  0  0  0  0  0  0
    5.9191   -3.4192   -1.8887 H   0  0  0  0  0  0  0  0  0  0  0  0
    7.7896   -3.8088   -3.2948 H   0  0  0  0  0  0  0  0  0  0  0  0
    9.1125   -2.6268   -3.4562 H   0  0  0  0  0  0  0  0  0  0  0  0
    8.1555   -2.6849   -1.9549 H   0  0  0  0  0  0  0  0  0  0  0  0
    5.7496   -0.1344   -4.6179 H   0  0  0  0  0  0  0  0  0  0  0  0
    3.3304    0.1272   -4.2254 H   0  0  0  0  0  0  0  0  0  0  0  0
    0.1380    1.3182   -7.2138 H   0  0  0  0  0  0  0  0  0  0  0  0
    0.9280    2.2478   -5.9057 H   0  0  0  0  0  0  0  0  0  0  0  0
   -2.5326    1.4248   -1.0779 H   0  0  0  0  0  0  0  0  0  0  0  0
   -4.3871    2.2348   -2.3204 H   0  0  0  0  0  0  0  0  0  0  0  0
   -4.5457   -2.9581   -5.1733 H   0  0  0  0  0  0  0  0  0  0  0  0
   -2.9331   -3.1957   -5.9093 H   0  0  0  0  0  0  0  0  0  0  0  0
   -6.5188    2.3357   -7.4874 H   0  0  0  0  0  0  0  0  0  0  0  0
   -5.3574   -0.1603   -8.8394 H   0  0  0  0  0  0  0  0  0  0  0  0
   -6.5509    1.0377   -9.5455 H   0  0  0  0  0  0  0  0  0  0  0  0
  1  2  1  0  0  0  0
  2  3  1  0  0  0  0
  3  4  2  0  0  0  0
  4  5  1  0  0  0  0
  5  6  1  0  0  0  0
  6  7  1  0  0  0  0
  7  8  1  0  0  0  0
  3  9  1  0  0  0  0
  9 10  2  0  0  0  0
 10 11  1  0  0  0  0
 11 12  1  0  0  0  0
 12 13  1  0  0  0  0
 13 14  2  0  0  0  0
 14 15  1  0  0  0  0
 15 16  1  0  0  0  0
 16 17  1  0  0  0  0
 17 18  1  0  0  0  0
 13 19  1  0  0  0  0
 19 20  2  0  0  0  0
 20 21  1  0  0  0  0
 21 22  1  0  0  0  0
 22 23  1  0  0  0  0
 23 24  2  0  0  0  0
 24 25  1  0  0  0  0
 25 26  1  0  0  0  0
 26 27  1  0  0  0  0
 27 28  1  0  0  0  0
 23 29  1  0  0  0  0
 29 30  2  0  0  0  0
 30 31  1  0  0  0  0
 31 32  1  0  0  0  0
 32 33  1  0  0  0  0
 33 34  2  0  0  0  0
 34 35  1  0  0  0  0
 35 36  1  0  0  0  0
 36 37  2  0  0  0  0
 37 38  1  0  0  0  0
 38 39  1  0  0  0  0
 37 40  1  0  0  0  0
 40 41  2  0  0  0  0
 33 42  1  0  0  0  0
 42 43  1  0  0  0  0
 43 44  1  0  0  0  0
 44 45  2  0  0  0  0
 45 46  1  0  0  0  0
 46 47  1  0  0  0  0
 47 48  1  0  0  0  0
 48 49  1  0  0  0  0
 44 50  1  0  0  0  0
 50 51  2  0  0  0  0
 51 52  1  0  0  0  0
 52 53  1  0  0  0  0
 53 54  1  0  0  0  0
 54 55  2  0  0  0  0
 55 56  1  0  0  0  0
 56 57  1  0  0  0  0
 57 58  1  0  0  0  0
 58 59  1  0  0  0  0
 54 60  1  0  0  0  0
 60 61  2  0  0  0  0
  5  1  2  0  0  0  0
 15 11  2  0  0  0  0
 25 21  2  0  0  0  0
 35 31  2  0  0  0  0
 46 42  2  0  0  0  0
 56 52  2  0  0  0  0
  8  4  1  0  0  0  0
 18 14  1  0  0  0  0
 28 24  1  0  0  0  0
 41 34  1  0  0  0  0
 49 45  1  0  0  0  0
 59 55  1  0  0  0  0
  1 62  1  0  0  0  0
  7 63  1  0  0  0  0
  7 64  1  0  0  0  0
  9 65  1  0  0  0  0
 10 66  1  0  0  0  0
 17 67  1  0  0  0  0
 17 68  1  0  0  0  0
 19 69  1  0  0  0  0
 20 70  1  0  0  0  0
 27 71  1  0  0  0  0
 27 72  1  0  0  0  0
 29 73  1  0  0  0  0
 30 74  1  0  0  0  0
 36 75  1  0  0  0  0
 39 76  1  0  0  0  0
 39 77  1  0  0  0  0
 39 78  1  0  0  0  0
 40 79  1  0  0  0  0
 41 80  1  0  0  0  0
 48 81  1  0  0  0  0
 48 82  1  0  0  0  0
 50 83  1  0  0  0  0
 51 84  1  0  0  0  0
 58 85  1  0  0  0  0
 58 86  1  0  0  0  0
 60 87  1  0  0  0  0
 61 88  1  0  0  0  0
 61 89  1  0  0  0  0
M  END
