
  xtb     03012216453D
 energy: -249.868208132143 gnorm: 0.000189173585 xtb: 6.4.1 (unknown)
169185  0     0  0            999 V2000
    4.3926    2.4281    2.9602 C   0  0  0  0  0  0  0  0  0  0  0  0
    3.0655    2.0393    2.8329 C   0  0  0  0  0  0  0  0  0  0  0  0
    2.1321    1.7770    3.8067 N   0  0  0  0  0  0  0  0  0  0  0  0
    2.3564    1.9849    5.2135 C   0  0  0  0  0  0  0  0  0  0  0  0
    3.0602    0.8055    5.8794 C   0  0  0  0  0  0  0  0  0  0  0  0
    0.9545    1.4114    3.1956 C   0  0  0  0  0  0  0  0  0  0  0  0
    1.1237    1.4686    1.7893 C   0  0  0  0  0  0  0  0  0  0  0  0
    2.4820    1.8618    1.5574 C   0  0  0  0  0  0  0  0  0  0  0  0
    3.2335    2.0737    0.4092 C   0  0  0  0  0  0  0  0  0  0  0  0
    4.5530    2.4549    0.5439 C   0  0  0  0  0  0  0  0  0  0  0  0
    5.1215    2.6298    1.8041 C   0  0  0  0  0  0  0  0  0  0  0  0
    0.0683    1.1907    0.9327 C   0  0  0  0  0  0  0  0  0  0  0  0
   -1.1514    0.8539    1.4797 C   0  0  0  0  0  0  0  0  0  0  0  0
   -1.3122    0.7876    2.8594 C   0  0  0  0  0  0  0  0  0  0  0  0
   -0.2764    1.0517    3.7461 C   0  0  0  0  0  0  0  0  0  0  0  0
   -0.5375    0.8877    5.1914 C   0  0  0  0  0  0  0  0  0  0  0  0
   -0.2383   -0.2343    5.8376 C   0  0  0  0  0  0  0  0  0  0  0  0
   -0.5307   -0.5129    7.2458 C   0  0  0  0  0  0  0  0  0  0  0  0
   -1.1360   -1.7088    7.6403 C   0  0  0  0  0  0  0  0  0  0  0  0
   -1.6453   -2.7233    6.8504 N   0  0  0  0  0  0  0  0  0  0  0  0
   -2.3193   -2.4572    5.6020 C   0  0  0  0  0  0  0  0  0  0  0  0
   -3.5554   -1.5822    5.8167 C   0  0  0  0  0  0  0  0  0  0  0  0
   -2.0342   -3.7510    7.6887 C   0  0  0  0  0  0  0  0  0  0  0  0
   -1.8553   -3.3608    9.0358 C   0  0  0  0  0  0  0  0  0  0  0  0
   -1.2658   -2.0503    9.0032 C   0  0  0  0  0  0  0  0  0  0  0  0
   -0.8513   -1.1662    9.9906 C   0  0  0  0  0  0  0  0  0  0  0  0
   -0.3140    0.0452    9.6028 C   0  0  0  0  0  0  0  0  0  0  0  0
   -0.1501    0.3597    8.2576 C   0  0  0  0  0  0  0  0  0  0  0  0
   -2.2307   -4.2022   10.0738 C   0  0  0  0  0  0  0  0  0  0  0  0
   -2.7789   -5.4290    9.7544 C   0  0  0  0  0  0  0  0  0  0  0  0
   -2.8730   -5.8430    8.4317 C   0  0  0  0  0  0  0  0  0  0  0  0
   -2.4545   -5.0474    7.3656 C   0  0  0  0  0  0  0  0  0  0  0  0
   -2.3599   -5.6798    6.0489 C   0  0  0  0  0  0  0  0  0  0  0  0
   -1.3561   -5.5611    5.1689 C   0  0  0  0  0  0  0  0  0  0  0  0
   -0.1495   -4.7461    5.3609 C   0  0  0  0  0  0  0  0  0  0  0  0
    0.4418   -3.9106    4.3987 C   0  0  0  0  0  0  0  0  0  0  0  0
    0.0977   -3.6180    3.0881 N   0  0  0  0  0  0  0  0  0  0  0  0
   -1.1726   -3.9423    2.4818 C   0  0  0  0  0  0  0  0  0  0  0  0
   -1.9501   -2.7152    2.0067 C   0  0  0  0  0  0  0  0  0  0  0  0
    1.0837   -2.8136    2.5349 C   0  0  0  0  0  0  0  0  0  0  0  0
    2.0362   -2.5159    3.5360 C   0  0  0  0  0  0  0  0  0  0  0  0
    1.6350   -3.2183    4.7173 C   0  0  0  0  0  0  0  0  0  0  0  0
    2.2271   -3.3067    5.9690 C   0  0  0  0  0  0  0  0  0  0  0  0
    1.6472   -4.1344    6.9056 C   0  0  0  0  0  0  0  0  0  0  0  0
    0.4984   -4.8443    6.5911 C   0  0  0  0  0  0  0  0  0  0  0  0
    3.1442   -1.7186    3.2865 C   0  0  0  0  0  0  0  0  0  0  0  0
    3.3072   -1.2097    2.0168 C   0  0  0  0  0  0  0  0  0  0  0  0
    2.3968   -1.5224    1.0200 C   0  0  0  0  0  0  0  0  0  0  0  0
    1.2823   -2.3380    1.2251 C   0  0  0  0  0  0  0  0  0  0  0  0
    0.4673   -2.7176    0.0812 C   0  0  0  0  0  0  0  0  0  0  0  0
    0.2814   -1.9282   -0.9932 C   0  0  0  0  0  0  0  0  0  0  0  0
   -0.4435   -2.2102   -2.1883 C   0  0  0  0  0  0  0  0  0  0  0  0
   -0.1015   -1.1658   -3.5389 S   0  0  0  0  0  0  0  0  0  0  0  0
   -1.1886   -2.0030   -4.5894 C   0  0  0  0  0  0  0  0  0  0  0  0
   -1.7954   -3.0544   -3.9205 C   0  0  0  0  0  0  0  0  0  0  0  0
   -1.3924   -3.1685   -2.5473 C   0  0  0  0  0  0  0  0  0  0  0  0
   -2.0025   -4.1518   -1.7347 C   0  0  0  0  0  0  0  0  0  0  0  0
   -2.9331   -4.9968   -2.2749 C   0  0  0  0  0  0  0  0  0  0  0  0
   -3.5860   -5.9836   -1.5961 O   0  0  0  0  0  0  0  0  0  0  0  0
   -3.2705   -6.1894   -0.2437 C   0  0  0  0  0  0  0  0  0  0  0  0
   -3.3106   -4.8898   -3.6432 C   0  0  0  0  0  0  0  0  0  0  0  0
   -2.7697   -3.9389   -4.4441 C   0  0  0  0  0  0  0  0  0  0  0  0
   -1.2403   -1.6764   -6.0073 C   0  0  0  0  0  0  0  0  0  0  0  0
   -1.4697   -0.3894   -6.5104 C   0  0  0  0  0  0  0  0  0  0  0  0
   -1.8544    0.7659   -5.8589 N   0  0  0  0  0  0  0  0  0  0  0  0
   -2.6624    0.7855   -4.6644 C   0  0  0  0  0  0  0  0  0  0  0  0
   -4.1524    0.8059   -5.0063 C   0  0  0  0  0  0  0  0  0  0  0  0
   -1.8103    1.8096   -6.7705 C   0  0  0  0  0  0  0  0  0  0  0  0
   -1.4144    1.3086   -8.0324 C   0  0  0  0  0  0  0  0  0  0  0  0
   -1.2256   -0.1047   -7.8743 C   0  0  0  0  0  0  0  0  0  0  0  0
   -0.8650   -1.1086   -8.7613 C   0  0  0  0  0  0  0  0  0  0  0  0
   -0.7442   -2.3978   -8.2809 C   0  0  0  0  0  0  0  0  0  0  0  0
   -0.9081   -2.6683   -6.9294 C   0  0  0  0  0  0  0  0  0  0  0  0
   -1.2403    2.1498   -9.1212 C   0  0  0  0  0  0  0  0  0  0  0  0
   -1.4601    3.4995   -8.9425 C   0  0  0  0  0  0  0  0  0  0  0  0
   -1.8164    3.9974   -7.6967 C   0  0  0  0  0  0  0  0  0  0  0  0
   -1.9890    3.1834   -6.5807 C   0  0  0  0  0  0  0  0  0  0  0  0
   -2.2802    3.8278   -5.2907 C   0  0  0  0  0  0  0  0  0  0  0  0
   -1.4952    4.7717   -4.7665 C   0  0  0  0  0  0  0  0  0  0  0  0
   -0.2817    5.2761   -5.4208 C   0  0  0  0  0  0  0  0  0  0  0  0
    0.7369    4.4786   -5.9557 C   0  0  0  0  0  0  0  0  0  0  0  0
    0.9712    3.1215   -5.8222 N   0  0  0  0  0  0  0  0  0  0  0  0
    0.6486    2.3899   -4.6188 C   0  0  0  0  0  0  0  0  0  0  0  0
    1.7752    2.4791   -3.5897 C   0  0  0  0  0  0  0  0  0  0  0  0
    2.0412    2.7933   -6.6375 C   0  0  0  0  0  0  0  0  0  0  0  0
    2.5232    3.9589   -7.2754 C   0  0  0  0  0  0  0  0  0  0  0  0
    1.6974    5.0424   -6.8262 C   0  0  0  0  0  0  0  0  0  0  0  0
    1.7222    6.4063   -7.0815 C   0  0  0  0  0  0  0  0  0  0  0  0
    0.7902    7.2072   -6.4534 C   0  0  0  0  0  0  0  0  0  0  0  0
   -0.1940    6.6464   -5.6492 C   0  0  0  0  0  0  0  0  0  0  0  0
    3.6141    3.9096   -8.1323 C   0  0  0  0  0  0  0  0  0  0  0  0
    4.2251    2.6909   -8.3435 C   0  0  0  0  0  0  0  0  0  0  0  0
    3.7397    1.5411   -7.7321 C   0  0  0  0  0  0  0  0  0  0  0  0
    2.6364    1.5513   -6.8851 C   0  0  0  0  0  0  0  0  0  0  0  0
    2.1276    0.2802   -6.3590 C   0  0  0  0  0  0  0  0  0  0  0  0
    2.8855   -0.6556   -5.8088 C   0  0  0  0  0  0  0  0  0  0  0  0
    4.8514    2.5678    3.9274 H   0  0  0  0  0  0  0  0  0  0  0  0
    2.9599    2.8917    5.3325 H   0  0  0  0  0  0  0  0  0  0  0  0
    1.3885    2.1529    5.6908 H   0  0  0  0  0  0  0  0  0  0  0  0
    4.0172    0.6172    5.3994 H   0  0  0  0  0  0  0  0  0  0  0  0
    2.4470   -0.0882    5.8035 H   0  0  0  0  0  0  0  0  0  0  0  0
    3.2309    1.0213    6.9312 H   0  0  0  0  0  0  0  0  0  0  0  0
    2.7947    1.9418   -0.5684 H   0  0  0  0  0  0  0  0  0  0  0  0
    5.1567    2.6214   -0.3359 H   0  0  0  0  0  0  0  0  0  0  0  0
    6.1571    2.9287    1.8780 H   0  0  0  0  0  0  0  0  0  0  0  0
    0.2002    1.2548   -0.1368 H   0  0  0  0  0  0  0  0  0  0  0  0
   -1.9934    0.6372    0.8386 H   0  0  0  0  0  0  0  0  0  0  0  0
   -2.2781    0.5211    3.2669 H   0  0  0  0  0  0  0  0  0  0  0  0
   -1.0856    1.6812    5.6878 H   0  0  0  0  0  0  0  0  0  0  0  0
    0.2734   -1.0297    5.3070 H   0  0  0  0  0  0  0  0  0  0  0  0
   -2.6249   -3.4094    5.1703 H   0  0  0  0  0  0  0  0  0  0  0  0
   -1.6307   -1.9572    4.9214 H   0  0  0  0  0  0  0  0  0  0  0  0
   -3.2696   -0.6140    6.2218 H   0  0  0  0  0  0  0  0  0  0  0  0
   -4.0716   -1.4278    4.8722 H   0  0  0  0  0  0  0  0  0  0  0  0
   -4.2399   -2.0610    6.5140 H   0  0  0  0  0  0  0  0  0  0  0  0
   -0.9449   -1.4243   11.0345 H   0  0  0  0  0  0  0  0  0  0  0  0
    0.0093    0.7538   10.3511 H   0  0  0  0  0  0  0  0  0  0  0  0
    0.3194    1.2944    7.9863 H   0  0  0  0  0  0  0  0  0  0  0  0
   -2.0966   -3.9018   11.1017 H   0  0  0  0  0  0  0  0  0  0  0  0
   -3.1044   -6.0959   10.5390 H   0  0  0  0  0  0  0  0  0  0  0  0
   -3.2337   -6.8398    8.2191 H   0  0  0  0  0  0  0  0  0  0  0  0
   -3.1444   -6.3969    5.8348 H   0  0  0  0  0  0  0  0  0  0  0  0
   -1.3877   -6.1723    4.2739 H   0  0  0  0  0  0  0  0  0  0  0  0
   -1.7706   -4.4503    3.2379 H   0  0  0  0  0  0  0  0  0  0  0  0
   -1.0245   -4.6455    1.6536 H   0  0  0  0  0  0  0  0  0  0  0  0
   -2.0938   -2.0174    2.8256 H   0  0  0  0  0  0  0  0  0  0  0  0
   -2.9269   -3.0268    1.6427 H   0  0  0  0  0  0  0  0  0  0  0  0
   -1.4310   -2.1935    1.2082 H   0  0  0  0  0  0  0  0  0  0  0  0
    3.1278   -2.7537    6.1878 H   0  0  0  0  0  0  0  0  0  0  0  0
    2.0885   -4.2473    7.8840 H   0  0  0  0  0  0  0  0  0  0  0  0
    0.0892   -5.5199    7.3267 H   0  0  0  0  0  0  0  0  0  0  0  0
    3.8667   -1.5302    4.0647 H   0  0  0  0  0  0  0  0  0  0  0  0
    4.1597   -0.5913    1.7807 H   0  0  0  0  0  0  0  0  0  0  0  0
    2.5929   -1.1627    0.0221 H   0  0  0  0  0  0  0  0  0  0  0  0
    0.0569   -3.7136    0.0930 H   0  0  0  0  0  0  0  0  0  0  0  0
    0.7461   -0.9506   -0.9898 H   0  0  0  0  0  0  0  0  0  0  0  0
   -1.7446   -4.2005   -0.6924 H   0  0  0  0  0  0  0  0  0  0  0  0
   -2.2138   -6.4474   -0.1136 H   0  0  0  0  0  0  0  0  0  0  0  0
   -3.5072   -5.3098    0.3649 H   0  0  0  0  0  0  0  0  0  0  0  0
   -3.8865   -7.0266    0.0808 H   0  0  0  0  0  0  0  0  0  0  0  0
   -4.0531   -5.5823   -4.0060 H   0  0  0  0  0  0  0  0  0  0  0  0
   -3.0724   -3.8356   -5.4750 H   0  0  0  0  0  0  0  0  0  0  0  0
   -2.3920    1.6577   -4.0646 H   0  0  0  0  0  0  0  0  0  0  0  0
   -2.4488   -0.1095   -4.0813 H   0  0  0  0  0  0  0  0  0  0  0  0
   -4.3959    1.6646   -5.6278 H   0  0  0  0  0  0  0  0  0  0  0  0
   -4.4210   -0.0967   -5.5516 H   0  0  0  0  0  0  0  0  0  0  0  0
   -4.7438    0.8502   -4.0952 H   0  0  0  0  0  0  0  0  0  0  0  0
   -0.6804   -0.8806   -9.7995 H   0  0  0  0  0  0  0  0  0  0  0  0
   -0.4786   -3.2022   -8.9500 H   0  0  0  0  0  0  0  0  0  0  0  0
   -0.7290   -3.6682   -6.5618 H   0  0  0  0  0  0  0  0  0  0  0  0
   -0.9293    1.7533  -10.0754 H   0  0  0  0  0  0  0  0  0  0  0  0
   -1.3363    4.1840   -9.7680 H   0  0  0  0  0  0  0  0  0  0  0  0
   -1.9611    5.0611   -7.5790 H   0  0  0  0  0  0  0  0  0  0  0  0
   -3.1921    3.5490   -4.7788 H   0  0  0  0  0  0  0  0  0  0  0  0
   -1.7956    5.2772   -3.8563 H   0  0  0  0  0  0  0  0  0  0  0  0
    0.4643    1.3435   -4.8595 H   0  0  0  0  0  0  0  0  0  0  0  0
   -0.2596    2.8186   -4.1959 H   0  0  0  0  0  0  0  0  0  0  0  0
    2.6880    2.0412   -3.9868 H   0  0  0  0  0  0  0  0  0  0  0  0
    1.9704    3.5165   -3.3251 H   0  0  0  0  0  0  0  0  0  0  0  0
    1.4900    1.9347   -2.6932 H   0  0  0  0  0  0  0  0  0  0  0  0
    2.4585    6.8258   -7.7500 H   0  0  0  0  0  0  0  0  0  0  0  0
    0.7993    8.2757   -6.6102 H   0  0  0  0  0  0  0  0  0  0  0  0
   -0.9535    7.2869   -5.2223 H   0  0  0  0  0  0  0  0  0  0  0  0
    3.9700    4.8053   -8.6184 H   0  0  0  0  0  0  0  0  0  0  0  0
    5.0787    2.6197   -9.0015 H   0  0  0  0  0  0  0  0  0  0  0  0
    4.2116    0.5921   -7.9420 H   0  0  0  0  0  0  0  0  0  0  0  0
    1.0674    0.1086   -6.4874 H   0  0  0  0  0  0  0  0  0  0  0  0
    3.9444   -0.5153   -5.6632 H   0  0  0  0  0  0  0  0  0  0  0  0
    2.4742   -1.5915   -5.4705 H   0  0  0  0  0  0  0  0  0  0  0  0
  1  2  2  0  0  0  0
  2  3  1  0  0  0  0
  3  4  1  0  0  0  0
  4  5  1  0  0  0  0
  3  6  1  0  0  0  0
  6  7  2  0  0  0  0
  7  8  1  0  0  0  0
  8  9  2  0  0  0  0
  9 10  1  0  0  0  0
 10 11  2  0  0  0  0
  7 12  1  0  0  0  0
 12 13  2  0  0  0  0
 13 14  1  0  0  0  0
 14 15  2  0  0  0  0
 15 16  1  0  0  0  0
 16 17  2  0  0  0  0
 17 18  1  0  0  0  0
 18 19  2  0  0  0  0
 19 20  1  0  0  0  0
 20 21  1  0  0  0  0
 21 22  1  0  0  0  0
 20 23  1  0  0  0  0
 23 24  2  0  0  0  0
 24 25  1  0  0  0  0
 25 26  2  0  0  0  0
 26 27  1  0  0  0  0
 27 28  2  0  0  0  0
 24 29  1  0  0  0  0
 29 30  2  0  0  0  0
 30 31  1  0  0  0  0
 31 32  2  0  0  0  0
 32 33  1  0  0  0  0
 33 34  2  0  0  0  0
 34 35  1  0  0  0  0
 35 36  2  0  0  0  0
 36 37  1  0  0  0  0
 37 38  1  0  0  0  0
 38 39  1  0  0  0  0
 37 40  1  0  0  0  0
 40 41  2  0  0  0  0
 41 42  1  0  0  0  0
 42 43  2  0  0  0  0
 43 44  1  0  0  0  0
 44 45  2  0  0  0  0
 41 46  1  0  0  0  0
 46 47  2  0  0  0  0
 47 48  1  0  0  0  0
 48 49  2  0  0  0  0
 49 50  1  0  0  0  0
 50 51  2  0  0  0  0
 51 52  1  0  0  0  0
 52 53  1  0  0  0  0
 53 54  1  0  0  0  0
 54 55  2  0  0  0  0
 55 56  1  0  0  0  0
 56 57  1  0  0  0  0
 57 58  2  0  0  0  0
 58 59  1  0  0  0  0
 59 60  1  0  0  0  0
 58 61  1  0  0  0  0
 61 62  2  0  0  0  0
 54 63  1  0  0  0  0
 63 64  2  0  0  0  0
 64 65  1  0  0  0  0
 65 66  1  0  0  0  0
 66 67  1  0  0  0  0
 65 68  1  0  0  0  0
 68 69  2  0  0  0  0
 69 70  1  0  0  0  0
 70 71  2  0  0  0  0
 71 72  1  0  0  0  0
 72 73  2  0  0  0  0
 69 74  1  0  0  0  0
 74 75  2  0  0  0  0
 75 76  1  0  0  0  0
 76 77  2  0  0  0  0
 77 78  1  0  0  0  0
 78 79  2  0  0  0  0
 79 80  1  0  0  0  0
 80 81  2  0  0  0  0
 81 82  1  0  0  0  0
 82 83  1  0  0  0  0
 83 84  1  0  0  0  0
 82 85  1  0  0  0  0
 85 86  2  0  0  0  0
 86 87  1  0  0  0  0
 87 88  2  0  0  0  0
 88 89  1  0  0  0  0
 89 90  2  0  0  0  0
 86 91  1  0  0  0  0
 91 92  2  0  0  0  0
 92 93  1  0  0  0  0
 93 94  2  0  0  0  0
 94 95  1  0  0  0  0
 95 96  2  0  0  0  0
 11  1  1  0  0  0  0
 28 18  1  0  0  0  0
 45 35  1  0  0  0  0
 56 52  2  0  0  0  0
 73 63  1  0  0  0  0
 90 80  1  0  0  0  0
  8  2  1  0  0  0  0
 25 19  1  0  0  0  0
 42 36  1  0  0  0  0
 62 55  1  0  0  0  0
 70 64  1  0  0  0  0
 87 81  1  0  0  0  0
 15  6  1  0  0  0  0
 32 23  1  0  0  0  0
 49 40  1  0  0  0  0
 77 68  1  0  0  0  0
 94 85  1  0  0  0  0
  1 97  1  0  0  0  0
  4 98  1  0  0  0  0
  4 99  1  0  0  0  0
  5100  1  0  0  0  0
  5101  1  0  0  0  0
  5102  1  0  0  0  0
  9103  1  0  0  0  0
 10104  1  0  0  0  0
 11105  1  0  0  0  0
 12106  1  0  0  0  0
 13107  1  0  0  0  0
 14108  1  0  0  0  0
 16109  1  0  0  0  0
 17110  1  0  0  0  0
 21111  1  0  0  0  0
 21112  1  0  0  0  0
 22113  1  0  0  0  0
 22114  1  0  0  0  0
 22115  1  0  0  0  0
 26116  1  0  0  0  0
 27117  1  0  0  0  0
 28118  1  0  0  0  0
 29119  1  0  0  0  0
 30120  1  0  0  0  0
 31121  1  0  0  0  0
 33122  1  0  0  0  0
 34123  1  0  0  0  0
 38124  1  0  0  0  0
 38125  1  0  0  0  0
 39126  1  0  0  0  0
 39127  1  0  0  0  0
 39128  1  0  0  0  0
 43129  1  0  0  0  0
 44130  1  0  0  0  0
 45131  1  0  0  0  0
 46132  1  0  0  0  0
 47133  1  0  0  0  0
 48134  1  0  0  0  0
 50135  1  0  0  0  0
 51136  1  0  0  0  0
 57137  1  0  0  0  0
 60138  1  0  0  0  0
 60139  1  0  0  0  0
 60140  1  0  0  0  0
 61141  1  0  0  0  0
 62142  1  0  0  0  0
 66143  1  0  0  0  0
 66144  1  0  0  0  0
 67145  1  0  0  0  0
 67146  1  0  0  0  0
 67147  1  0  0  0  0
 71148  1  0  0  0  0
 72149  1  0  0  0  0
 73150  1  0  0  0  0
 74151  1  0  0  0  0
 75152  1  0  0  0  0
 76153  1  0  0  0  0
 78154  1  0  0  0  0
 79155  1  0  0  0  0
 83156  1  0  0  0  0
 83157  1  0  0  0  0
 84158  1  0  0  0  0
 84159  1  0  0  0  0
 84160  1  0  0  0  0
 88161  1  0  0  0  0
 89162  1  0  0  0  0
 90163  1  0  0  0  0
 91164  1  0  0  0  0
 92165  1  0  0  0  0
 93166  1  0  0  0  0
 95167  1  0  0  0  0
 96168  1  0  0  0  0
 96169  1  0  0  0  0
M  END
