
  xtb     03012207093D
 energy: -151.188431885217 gnorm: 0.000176788415 xtb: 6.4.1 (unknown)
 64 70  0     0  0            999 V2000
    4.6190    2.9599    0.7956 C   0  0  0  0  0  0  0  0  0  0  0  0
    3.6376    2.5462   -0.0224 O   0  0  0  0  0  0  0  0  0  0  0  0
    3.7076    3.2481   -1.1642 C   0  0  0  0  0  0  0  0  0  0  0  0
    4.7746    4.1397   -1.0708 C   0  0  0  0  0  0  0  0  0  0  0  0
    5.3557    3.9374    0.2112 C   0  0  0  0  0  0  0  0  0  0  0  0
    5.2664    5.0809   -2.0070 N   0  0  0  0  0  4  0  0  0  0  0  0
    4.6851    5.1971   -3.0668 O   0  0  0  0  0  1  0  0  0  0  0  0
    6.2483    5.7116   -1.6817 O   0  0  0  0  0  0  0  0  0  0  0  0
    2.7420    2.9346   -2.1772 C   0  0  0  0  0  0  0  0  0  0  0  0
    1.8938    1.9082   -1.8999 O   0  0  0  0  0  0  0  0  0  0  0  0
    1.0721    1.7339   -2.9430 C   0  0  0  0  0  0  0  0  0  0  0  0
    1.3892    2.6792   -3.9233 C   0  0  0  0  0  0  0  0  0  0  0  0
    2.4653    3.4458   -3.4211 C   0  0  0  0  0  0  0  0  0  0  0  0
    0.7954    2.9105   -5.1905 N   0  0  0  0  0  4  0  0  0  0  0  0
   -0.1453    2.2139   -5.5164 O   0  0  0  0  0  1  0  0  0  0  0  0
    1.2687    3.7960   -5.8645 O   0  0  0  0  0  0  0  0  0  0  0  0
    0.1324    0.6617   -2.8478 C   0  0  0  0  0  0  0  0  0  0  0  0
    0.1135   -0.0221   -1.6655 O   0  0  0  0  0  0  0  0  0  0  0  0
   -0.7807   -1.0180   -1.7616 C   0  0  0  0  0  0  0  0  0  0  0  0
   -1.3710   -0.9661   -3.0319 C   0  0  0  0  0  0  0  0  0  0  0  0
   -0.7698    0.1065   -3.7241 C   0  0  0  0  0  0  0  0  0  0  0  0
   -2.4609   -1.7179   -3.5245 N   0  0  0  0  0  4  0  0  0  0  0  0
   -3.1379   -2.3364   -2.7206 O   0  0  0  0  0  1  0  0  0  0  0  0
   -2.6582   -1.6969   -4.7230 O   0  0  0  0  0  0  0  0  0  0  0  0
   -0.9718   -1.8797   -0.6522 C   0  0  0  0  0  0  0  0  0  0  0  0
   -0.8138   -1.2408    0.9504 S   0  0  0  0  0  0  0  0  0  0  0  0
   -1.2981   -2.7349    1.6640 C   0  0  0  0  0  0  0  0  0  0  0  0
   -1.5406   -3.7172    0.6996 C   0  0  0  0  0  0  0  0  0  0  0  0
   -1.3247   -3.2353   -0.6295 C   0  0  0  0  0  0  0  0  0  0  0  0
   -1.4266   -4.1038   -1.7282 C   0  0  0  0  0  0  0  0  0  0  0  0
   -1.8670   -5.3927   -1.5253 C   0  0  0  0  0  0  0  0  0  0  0  0
   -2.0561   -6.3055   -2.4917 O   0  0  0  0  0  0  0  0  0  0  0  0
   -1.9205   -5.9083   -3.8400 C   0  0  0  0  0  0  0  0  0  0  0  0
   -2.1595   -5.8465   -0.2087 C   0  0  0  0  0  0  0  0  0  0  0  0
   -1.9832   -5.0475    0.8766 C   0  0  0  0  0  0  0  0  0  0  0  0
   -1.4147   -2.7976    3.0835 C   0  0  0  0  0  0  0  0  0  0  0  0
   -1.4507   -1.6150    3.7570 O   0  0  0  0  0  0  0  0  0  0  0  0
   -1.5561   -1.8672    5.0712 C   0  0  0  0  0  0  0  0  0  0  0  0
   -1.5765   -3.2449    5.2615 C   0  0  0  0  0  0  0  0  0  0  0  0
   -1.4900   -3.8374    3.9810 C   0  0  0  0  0  0  0  0  0  0  0  0
   -1.6163   -3.9897    6.4732 N   0  0  0  0  0  4  0  0  0  0  0  0
   -1.8511   -5.1742    6.3692 O   0  0  0  0  0  1  0  0  0  0  0  0
   -1.3927   -3.4079    7.5113 O   0  0  0  0  0  0  0  0  0  0  0  0
   -1.6745   -0.7404    5.9472 C   0  0  0  0  0  0  0  0  0  0  0  0
   -2.0078   -0.8926    7.2487 O   0  0  0  0  0  0  0  0  0  0  0  0
   -2.0660    0.3040    7.8027 C   0  0  0  0  0  0  0  0  0  0  0  0
   -1.7727    1.2719    6.8659 C   0  0  0  0  0  0  0  0  0  0  0  0
   -1.5193    0.5954    5.6506 C   0  0  0  0  0  0  0  0  0  0  0  0
   -1.7325    2.6785    7.0784 N   0  0  0  0  0  4  0  0  0  0  0  0
   -1.4254    3.3717    6.1349 O   0  0  0  0  0  1  0  0  0  0  0  0
   -2.0081    3.0763    8.1884 O   0  0  0  0  0  0  0  0  0  0  0  0
    4.6873    2.4871    1.7547 H   0  0  0  0  0  0  0  0  0  0  0  0
    6.2000    4.4661    0.6008 H   0  0  0  0  0  0  0  0  0  0  0  0
    2.9533    4.2553   -3.9244 H   0  0  0  0  0  0  0  0  0  0  0  0
   -1.0007    0.4271   -4.7193 H   0  0  0  0  0  0  0  0  0  0  0  0
   -1.1331   -3.7632   -2.7052 H   0  0  0  0  0  0  0  0  0  0  0  0
   -2.5689   -5.0575   -4.0664 H   0  0  0  0  0  0  0  0  0  0  0  0
   -0.8834   -5.6557   -4.0800 H   0  0  0  0  0  0  0  0  0  0  0  0
   -2.2276   -6.7675   -4.4329 H   0  0  0  0  0  0  0  0  0  0  0  0
   -2.5128   -6.8599   -0.1058 H   0  0  0  0  0  0  0  0  0  0  0  0
   -2.1990   -5.4174    1.8638 H   0  0  0  0  0  0  0  0  0  0  0  0
   -1.4528   -4.8896    3.7973 H   0  0  0  0  0  0  0  0  0  0  0  0
   -2.3159    0.3833    8.8429 H   0  0  0  0  0  0  0  0  0  0  0  0
   -1.2622    1.0342    4.7095 H   0  0  0  0  0  0  0  0  0  0  0  0
  1  2  1  0  0  0  0
  2  3  1  0  0  0  0
  3  4  2  0  0  0  0
  4  5  1  0  0  0  0
  4  6  1  0  0  0  0
  6  7  1  0  0  0  0
  6  8  2  0  0  0  0
  3  9  1  0  0  0  0
  9 10  1  0  0  0  0
 10 11  1  0  0  0  0
 11 12  2  0  0  0  0
 12 13  1  0  0  0  0
 12 14  1  0  0  0  0
 14 15  1  0  0  0  0
 14 16  2  0  0  0  0
 11 17  1  0  0  0  0
 17 18  1  0  0  0  0
 18 19  1  0  0  0  0
 19 20  2  0  0  0  0
 20 21  1  0  0  0  0
 20 22  1  0  0  0  0
 22 23  1  0  0  0  0
 22 24  2  0  0  0  0
 19 25  1  0  0  0  0
 25 26  1  0  0  0  0
 26 27  1  0  0  0  0
 27 28  2  0  0  0  0
 28 29  1  0  0  0  0
 29 30  1  0  0  0  0
 30 31  2  0  0  0  0
 31 32  1  0  0  0  0
 32 33  1  0  0  0  0
 31 34  1  0  0  0  0
 34 35  2  0  0  0  0
 27 36  1  0  0  0  0
 36 37  1  0  0  0  0
 37 38  1  0  0  0  0
 38 39  2  0  0  0  0
 39 40  1  0  0  0  0
 39 41  1  0  0  0  0
 41 42  1  0  0  0  0
 41 43  2  0  0  0  0
 38 44  1  0  0  0  0
 44 45  1  0  0  0  0
 45 46  1  0  0  0  0
 46 47  2  0  0  0  0
 47 48  1  0  0  0  0
 47 49  1  0  0  0  0
 49 50  1  0  0  0  0
 49 51  2  0  0  0  0
  5  1  2  0  0  0  0
 13  9  2  0  0  0  0
 21 17  2  0  0  0  0
 29 25  2  0  0  0  0
 40 36  2  0  0  0  0
 48 44  2  0  0  0  0
 35 28  1  0  0  0  0
  1 52  1  0  0  0  0
  5 53  1  0  0  0  0
 13 54  1  0  0  0  0
 21 55  1  0  0  0  0
 30 56  1  0  0  0  0
 33 57  1  0  0  0  0
 33 58  1  0  0  0  0
 33 59  1  0  0  0  0
 34 60  1  0  0  0  0
 35 61  1  0  0  0  0
 40 62  1  0  0  0  0
 46 63  1  0  0  0  0
 48 64  1  0  0  0  0
M  CHG  1   6   1
M  CHG  1   7  -1
M  CHG  1  14   1
M  CHG  1  15  -1
M  CHG  1  22   1
M  CHG  1  23  -1
M  CHG  1  41   1
M  CHG  1  42  -1
M  CHG  1  49   1
M  CHG  1  50  -1
M  END
