
  xtb     03012206423D
 energy: -453.094187155826 gnorm: 0.000149296529 xtb: 6.4.1 (unknown)
229255  0     0  0            999 V2000
    0.6045  -10.7822   10.5521 C   0  0  0  0  0  0  0  0  0  0  0  0
    0.9050  -11.2584    9.3269 C   0  0  0  0  0  0  0  0  0  0  0  0
    0.5368  -10.3632    8.2803 C   0  0  0  0  0  0  0  0  0  0  0  0
    0.7096  -10.5213    6.8971 C   0  0  0  0  0  0  0  0  0  0  0  0
    1.3651  -11.6933    6.3374 C   0  0  0  0  0  0  0  0  0  0  0  0
    2.9612  -12.1539    6.8540 S   0  0  0  0  0  0  0  0  0  0  0  0
    3.0247  -13.4807    5.7443 C   0  0  0  0  0  0  0  0  0  0  0  0
    4.2431  -14.3282    5.6280 C   0  0  0  0  0  0  0  0  0  0  0  0
    5.3006  -13.6481    4.7552 C   0  0  0  0  0  0  0  0  0  0  0  0
    1.8714  -13.5468    5.0219 C   0  0  0  0  0  0  0  0  0  0  0  0
    1.5599  -14.7334    3.8225 Cl  0  0  0  0  0  0  0  0  0  0  0  0
    0.9275  -12.5371    5.3555 C   0  0  0  0  0  0  0  0  0  0  0  0
   -0.6267  -12.4585    4.6375 Cl  0  0  0  0  0  0  0  0  0  0  0  0
    0.2720   -9.4831    6.0830 C   0  0  0  0  0  0  0  0  0  0  0  0
   -0.3116   -8.2976    6.5937 C   0  0  0  0  0  0  0  0  0  0  0  0
   -0.5201   -8.1568    7.9748 C   0  0  0  0  0  0  0  0  0  0  0  0
   -1.1622   -6.9766    8.5320 C   0  0  0  0  0  0  0  0  0  0  0  0
   -0.5639   -5.3731    8.2219 S   0  0  0  0  0  0  0  0  0  0  0  0
   -1.7974   -4.6391    9.1882 C   0  0  0  0  0  0  0  0  0  0  0  0
   -1.8451   -3.1666    9.4042 C   0  0  0  0  0  0  0  0  0  0  0  0
   -1.0759   -2.7748   10.6682 C   0  0  0  0  0  0  0  0  0  0  0  0
   -2.6127   -5.5937    9.7180 C   0  0  0  0  0  0  0  0  0  0  0  0
   -2.2588   -6.9185    9.3465 C   0  0  0  0  0  0  0  0  0  0  0  0
   -3.1855   -8.2815    9.8149 Cl  0  0  0  0  0  0  0  0  0  0  0  0
   -3.9551   -5.2479   10.7287 Cl  0  0  0  0  0  0  0  0  0  0  0  0
   -0.0840   -9.1967    8.7877 C   0  0  0  0  0  0  0  0  0  0  0  0
   -0.1544   -9.2295   10.5263 S   0  0  0  0  0  0  0  0  0  0  0  0
   -0.6203   -7.3749    5.5618 C   0  0  0  0  0  0  0  0  0  0  0  0
   -0.2885   -7.8224    4.3194 C   0  0  0  0  0  0  0  0  0  0  0  0
    0.4148   -9.4223    4.3512 S   0  0  0  0  0  0  0  0  0  0  0  0
   -0.4432   -7.1198    3.0800 C   0  0  0  0  0  0  0  0  0  0  0  0
   -0.3694   -5.7725    2.8941 C   0  0  0  0  0  0  0  0  0  0  0  0
   -0.5351   -5.3807    1.5418 C   0  0  0  0  0  0  0  0  0  0  0  0
   -0.4155   -4.0968    0.9817 C   0  0  0  0  0  0  0  0  0  0  0  0
    0.0118   -2.9480    1.7595 C   0  0  0  0  0  0  0  0  0  0  0  0
   -0.8173   -1.4269    1.6045 S   0  0  0  0  0  0  0  0  0  0  0  0
    0.2249   -0.6429    2.7345 C   0  0  0  0  0  0  0  0  0  0  0  0
    0.1005    0.8130    3.0204 C   0  0  0  0  0  0  0  0  0  0  0  0
    0.9871    1.6237    2.0717 C   0  0  0  0  0  0  0  0  0  0  0  0
    1.1602   -1.5196    3.1979 C   0  0  0  0  0  0  0  0  0  0  0  0
    2.3564   -1.0937    4.3513 Cl  0  0  0  0  0  0  0  0  0  0  0  0
    1.0464   -2.8244    2.6485 C   0  0  0  0  0  0  0  0  0  0  0  0
    2.1811   -4.0654    3.0008 Cl  0  0  0  0  0  0  0  0  0  0  0  0
   -0.7482   -3.9713   -0.3638 C   0  0  0  0  0  0  0  0  0  0  0  0
   -1.1881   -5.0549   -1.1608 C   0  0  0  0  0  0  0  0  0  0  0  0
   -1.2059   -6.3533   -0.6243 C   0  0  0  0  0  0  0  0  0  0  0  0
   -1.5737   -7.4983   -1.4411 C   0  0  0  0  0  0  0  0  0  0  0  0
   -0.7553   -7.8221   -2.9417 S   0  0  0  0  0  0  0  0  0  0  0  0
   -1.6947   -9.2445   -3.2389 C   0  0  0  0  0  0  0  0  0  0  0  0
   -1.5197  -10.0378   -4.4865 C   0  0  0  0  0  0  0  0  0  0  0  0
   -2.3210   -9.4262   -5.6384 C   0  0  0  0  0  0  0  0  0  0  0  0
   -2.5942   -9.4355   -2.2331 C   0  0  0  0  0  0  0  0  0  0  0  0
   -2.5254   -8.4520   -1.2095 C   0  0  0  0  0  0  0  0  0  0  0  0
   -3.6028   -8.4394    0.1231 Cl  0  0  0  0  0  0  0  0  0  0  0  0
   -3.7112  -10.7372   -2.1829 Cl  0  0  0  0  0  0  0  0  0  0  0  0
   -0.8561   -6.4864    0.7134 C   0  0  0  0  0  0  0  0  0  0  0  0
   -0.7671   -7.9830    1.5953 S   0  0  0  0  0  0  0  0  0  0  0  0
   -1.6077   -4.6319   -2.4519 C   0  0  0  0  0  0  0  0  0  0  0  0
   -1.4361   -3.3011   -2.6598 C   0  0  0  0  0  0  0  0  0  0  0  0
   -0.7220   -2.4934   -1.2764 S   0  0  0  0  0  0  0  0  0  0  0  0
   -1.8736   -2.4533   -3.7351 C   0  0  0  0  0  0  0  0  0  0  0  0
   -3.1130   -2.4020   -4.2973 C   0  0  0  0  0  0  0  0  0  0  0  0
   -3.3280   -1.2360   -5.0795 C   0  0  0  0  0  0  0  0  0  0  0  0
   -4.5598   -0.7304   -5.5503 C   0  0  0  0  0  0  0  0  0  0  0  0
   -5.7549   -1.5509   -5.5375 C   0  0  0  0  0  0  0  0  0  0  0  0
   -7.2789   -0.9609   -4.9387 S   0  0  0  0  0  0  0  0  0  0  0  0
   -8.0857   -2.4546   -5.2811 C   0  0  0  0  0  0  0  0  0  0  0  0
   -9.5223   -2.6457   -4.9410 C   0  0  0  0  0  0  0  0  0  0  0  0
   -9.7044   -2.9109   -3.4448 C   0  0  0  0  0  0  0  0  0  0  0  0
   -7.2127   -3.3488   -5.8240 C   0  0  0  0  0  0  0  0  0  0  0  0
   -7.6430   -4.9395   -6.3039 Cl  0  0  0  0  0  0  0  0  0  0  0  0
   -5.8943   -2.8407   -5.9748 C   0  0  0  0  0  0  0  0  0  0  0  0
   -4.6429   -3.7498   -6.7185 Cl  0  0  0  0  0  0  0  0  0  0  0  0
   -4.5784    0.6057   -5.9284 C   0  0  0  0  0  0  0  0  0  0  0  0
   -3.4064    1.3961   -6.0198 C   0  0  0  0  0  0  0  0  0  0  0  0
   -2.1623    0.8659   -5.6404 C   0  0  0  0  0  0  0  0  0  0  0  0
   -0.9562    1.6754   -5.5871 C   0  0  0  0  0  0  0  0  0  0  0  0
   -0.8980    3.1801   -4.7090 S   0  0  0  0  0  0  0  0  0  0  0  0
    0.7846    3.3982   -5.0368 C   0  0  0  0  0  0  0  0  0  0  0  0
    1.5363    4.5684   -4.5053 C   0  0  0  0  0  0  0  0  0  0  0  0
    2.4173    4.1652   -3.3224 C   0  0  0  0  0  0  0  0  0  0  0  0
    1.2622    2.3572   -5.7766 C   0  0  0  0  0  0  0  0  0  0  0  0
    0.2824    1.3759   -6.0818 C   0  0  0  0  0  0  0  0  0  0  0  0
    0.6193   -0.0065   -7.0359 Cl  0  0  0  0  0  0  0  0  0  0  0  0
    2.8869    2.2363   -6.3119 Cl  0  0  0  0  0  0  0  0  0  0  0  0
   -2.1702   -0.4233   -5.1261 C   0  0  0  0  0  0  0  0  0  0  0  0
   -0.8543   -1.1242   -4.2339 S   0  0  0  0  0  0  0  0  0  0  0  0
   -3.6911    2.7513   -6.2754 C   0  0  0  0  0  0  0  0  0  0  0  0
   -5.0274    3.0571   -6.2173 C   0  0  0  0  0  0  0  0  0  0  0  0
   -6.0021    1.5939   -6.1512 S   0  0  0  0  0  0  0  0  0  0  0  0
   -5.5038    4.3338   -5.8080 C   0  0  0  0  0  0  0  0  0  0  0  0
   -4.3191    5.6133   -5.7244 S   0  0  0  0  0  0  0  0  0  0  0  0
   -5.0142    6.2608   -4.2656 C   0  0  0  0  0  0  0  0  0  0  0  0
   -6.2399    5.6580   -4.0028 C   0  0  0  0  0  0  0  0  0  0  0  0
   -6.5490    4.5883   -4.9085 C   0  0  0  0  0  0  0  0  0  0  0  0
   -7.7328    3.8473   -4.7430 C   0  0  0  0  0  0  0  0  0  0  0  0
   -8.5717    4.1435   -3.6973 C   0  0  0  0  0  0  0  0  0  0  0  0
   -9.7261    3.4915   -3.4210 O   0  0  0  0  0  0  0  0  0  0  0  0
  -10.0823    2.3883   -4.2222 C   0  0  0  0  0  0  0  0  0  0  0  0
   -8.2635    5.2069   -2.8023 C   0  0  0  0  0  0  0  0  0  0  0  0
   -7.1326    5.9464   -2.9461 C   0  0  0  0  0  0  0  0  0  0  0  0
   -4.0567    6.8000   -3.3454 C   0  0  0  0  0  0  0  0  0  0  0  0
   -3.7751    6.1959   -2.1519 C   0  0  0  0  0  0  0  0  0  0  0  0
   -2.4588    6.4472   -1.6958 C   0  0  0  0  0  0  0  0  0  0  0  0
   -1.7513    5.6949   -0.7441 C   0  0  0  0  0  0  0  0  0  0  0  0
   -2.4031    4.6279    0.0045 C   0  0  0  0  0  0  0  0  0  0  0  0
   -3.6536    4.9521    1.1645 S   0  0  0  0  0  0  0  0  0  0  0  0
   -3.8694    3.2711    1.5149 C   0  0  0  0  0  0  0  0  0  0  0  0
   -4.8323    2.8109    2.5534 C   0  0  0  0  0  0  0  0  0  0  0  0
   -4.1344    2.6318    3.9038 C   0  0  0  0  0  0  0  0  0  0  0  0
   -3.0141    2.5170    0.7682 C   0  0  0  0  0  0  0  0  0  0  0  0
   -2.9613    0.7978    0.8108 Cl  0  0  0  0  0  0  0  0  0  0  0  0
   -2.1788    3.2836   -0.0887 C   0  0  0  0  0  0  0  0  0  0  0  0
   -1.0601    2.5651   -1.1720 Cl  0  0  0  0  0  0  0  0  0  0  0  0
   -0.3858    5.9113   -0.6581 C   0  0  0  0  0  0  0  0  0  0  0  0
    0.2868    6.8957   -1.4230 C   0  0  0  0  0  0  0  0  0  0  0  0
   -0.4211    7.6544   -2.3749 C   0  0  0  0  0  0  0  0  0  0  0  0
    0.2521    8.6097   -3.2368 C   0  0  0  0  0  0  0  0  0  0  0  0
    1.7100    8.1981   -4.0938 S   0  0  0  0  0  0  0  0  0  0  0  0
    1.8213    9.7614   -4.8269 C   0  0  0  0  0  0  0  0  0  0  0  0
    2.9677   10.1067   -5.7116 C   0  0  0  0  0  0  0  0  0  0  0  0
    4.2786   10.1630   -4.9244 C   0  0  0  0  0  0  0  0  0  0  0  0
    0.7804   10.5439   -4.4258 C   0  0  0  0  0  0  0  0  0  0  0  0
   -0.1154    9.8931   -3.5339 C   0  0  0  0  0  0  0  0  0  0  0  0
   -1.4662   10.6912   -2.8468 Cl  0  0  0  0  0  0  0  0  0  0  0  0
    0.5470   12.1668   -4.9324 Cl  0  0  0  0  0  0  0  0  0  0  0  0
   -1.7731    7.3715   -2.5217 C   0  0  0  0  0  0  0  0  0  0  0  0
   -2.7742    7.8765   -3.8579 S   0  0  0  0  0  0  0  0  0  0  0  0
    1.6790    6.8833   -1.1749 C   0  0  0  0  0  0  0  0  0  0  0  0
    2.0747    5.8910   -0.3258 C   0  0  0  0  0  0  0  0  0  0  0  0
    0.7221    4.9831    0.3114 S   0  0  0  0  0  0  0  0  0  0  0  0
    3.4184    5.4654   -0.1109 C   0  0  0  0  0  0  0  0  0  0  0  0
    3.8566    4.2710    0.3779 C   0  0  0  0  0  0  0  0  0  0  0  0
    5.2531    4.0766    0.2206 C   0  0  0  0  0  0  0  0  0  0  0  0
    6.0125    2.9237    0.4813 C   0  0  0  0  0  0  0  0  0  0  0  0
    5.4041    1.6677    0.8862 C   0  0  0  0  0  0  0  0  0  0  0  0
    6.0895    0.7154    2.1702 S   0  0  0  0  0  0  0  0  0  0  0  0
    4.9919   -0.5943    1.8993 C   0  0  0  0  0  0  0  0  0  0  0  0
    5.1407   -1.8669    2.6537 C   0  0  0  0  0  0  0  0  0  0  0  0
    6.3770   -2.6334    2.1791 C   0  0  0  0  0  0  0  0  0  0  0  0
    4.1321   -0.2870    0.8875 C   0  0  0  0  0  0  0  0  0  0  0  0
    2.8966   -1.3367    0.3155 Cl  0  0  0  0  0  0  0  0  0  0  0  0
    4.3590    0.9938    0.3123 C   0  0  0  0  0  0  0  0  0  0  0  0
    3.4629    1.5426   -1.0452 Cl  0  0  0  0  0  0  0  0  0  0  0  0
    7.3840    3.0086    0.2496 C   0  0  0  0  0  0  0  0  0  0  0  0
    8.0095    4.1612   -0.2797 C   0  0  0  0  0  0  0  0  0  0  0  0
    7.2423    5.2925   -0.5926 C   0  0  0  0  0  0  0  0  0  0  0  0
    7.8195    6.4751   -1.2135 C   0  0  0  0  0  0  0  0  0  0  0  0
    8.6656    6.3740   -2.7293 S   0  0  0  0  0  0  0  0  0  0  0  0
    8.9038    8.0864   -2.8000 C   0  0  0  0  0  0  0  0  0  0  0  0
    9.5566    8.7314   -3.9724 C   0  0  0  0  0  0  0  0  0  0  0  0
    8.5155    9.1157   -5.0271 C   0  0  0  0  0  0  0  0  0  0  0  0
    8.3547    8.6862   -1.7064 C   0  0  0  0  0  0  0  0  0  0  0  0
    7.7411    7.7765   -0.8039 C   0  0  0  0  0  0  0  0  0  0  0  0
    7.0428    8.2777    0.6790 Cl  0  0  0  0  0  0  0  0  0  0  0  0
    8.3930   10.3786   -1.4261 Cl  0  0  0  0  0  0  0  0  0  0  0  0
    5.8814    5.2200   -0.3329 C   0  0  0  0  0  0  0  0  0  0  0  0
    4.7259    6.4563   -0.7263 S   0  0  0  0  0  0  0  0  0  0  0  0
    9.4129    3.9774   -0.4442 C   0  0  0  0  0  0  0  0  0  0  0  0
    9.8227    2.7459   -0.0789 C   0  0  0  0  0  0  0  0  0  0  0  0
    8.5439    1.7306    0.4895 S   0  0  0  0  0  0  0  0  0  0  0  0
    0.7751  -11.2521   11.5010 H   0  0  0  0  0  0  0  0  0  0  0  0
    1.3709  -12.2112    9.1556 H   0  0  0  0  0  0  0  0  0  0  0  0
    4.6563  -14.5091    6.6221 H   0  0  0  0  0  0  0  0  0  0  0  0
    3.9617  -15.2852    5.1854 H   0  0  0  0  0  0  0  0  0  0  0  0
    4.9082  -13.4712    3.7571 H   0  0  0  0  0  0  0  0  0  0  0  0
    6.1820  -14.2788    4.6769 H   0  0  0  0  0  0  0  0  0  0  0  0
    5.5905  -12.6939    5.1890 H   0  0  0  0  0  0  0  0  0  0  0  0
   -2.8886   -2.8608    9.5052 H   0  0  0  0  0  0  0  0  0  0  0  0
   -1.4123   -2.6595    8.5406 H   0  0  0  0  0  0  0  0  0  0  0  0
   -1.1252   -1.6995   10.8164 H   0  0  0  0  0  0  0  0  0  0  0  0
   -0.0327   -3.0688   10.5820 H   0  0  0  0  0  0  0  0  0  0  0  0
   -1.5053   -3.2669   11.5369 H   0  0  0  0  0  0  0  0  0  0  0  0
   -1.0888   -6.4236    5.7333 H   0  0  0  0  0  0  0  0  0  0  0  0
   -0.1996   -5.0848    3.7011 H   0  0  0  0  0  0  0  0  0  0  0  0
   -0.9385    1.1192    2.8927 H   0  0  0  0  0  0  0  0  0  0  0  0
    0.4007    1.0019    4.0531 H   0  0  0  0  0  0  0  0  0  0  0  0
    0.7100    1.4300    1.0385 H   0  0  0  0  0  0  0  0  0  0  0  0
    2.0311    1.3510    2.2093 H   0  0  0  0  0  0  0  0  0  0  0  0
    0.8697    2.6866    2.2677 H   0  0  0  0  0  0  0  0  0  0  0  0
   -1.8618  -11.0579   -4.3034 H   0  0  0  0  0  0  0  0  0  0  0  0
   -0.4621  -10.0651   -4.7546 H   0  0  0  0  0  0  0  0  0  0  0  0
   -2.1879  -10.0168   -6.5407 H   0  0  0  0  0  0  0  0  0  0  0  0
   -1.9860   -8.4101   -5.8336 H   0  0  0  0  0  0  0  0  0  0  0  0
   -3.3792   -9.4023   -5.3904 H   0  0  0  0  0  0  0  0  0  0  0  0
   -2.0252   -5.2928   -3.1891 H   0  0  0  0  0  0  0  0  0  0  0  0
   -3.8798   -3.1197   -4.0705 H   0  0  0  0  0  0  0  0  0  0  0  0
   -9.9057   -3.4917   -5.5137 H   0  0  0  0  0  0  0  0  0  0  0  0
  -10.0824   -1.7510   -5.2205 H   0  0  0  0  0  0  0  0  0  0  0  0
   -9.3230   -2.0739   -2.8647 H   0  0  0  0  0  0  0  0  0  0  0  0
   -9.1668   -3.8094   -3.1530 H   0  0  0  0  0  0  0  0  0  0  0  0
  -10.7577   -3.0456   -3.2150 H   0  0  0  0  0  0  0  0  0  0  0  0
    0.8316    5.3401   -4.1915 H   0  0  0  0  0  0  0  0  0  0  0  0
    2.1676    4.9766   -5.2978 H   0  0  0  0  0  0  0  0  0  0  0  0
    1.8067    3.7914   -2.5037 H   0  0  0  0  0  0  0  0  0  0  0  0
    3.1144    3.3854   -3.6168 H   0  0  0  0  0  0  0  0  0  0  0  0
    2.9831    5.0249   -2.9754 H   0  0  0  0  0  0  0  0  0  0  0  0
   -2.9308    3.5065   -6.3432 H   0  0  0  0  0  0  0  0  0  0  0  0
   -7.9622    3.0691   -5.4507 H   0  0  0  0  0  0  0  0  0  0  0  0
  -10.2723    2.6912   -5.2565 H   0  0  0  0  0  0  0  0  0  0  0  0
  -10.9993    1.9940   -3.7876 H   0  0  0  0  0  0  0  0  0  0  0  0
   -9.3062    1.6161   -4.2076 H   0  0  0  0  0  0  0  0  0  0  0  0
   -8.9673    5.4031   -2.0093 H   0  0  0  0  0  0  0  0  0  0  0  0
   -6.9055    6.7596   -2.2741 H   0  0  0  0  0  0  0  0  0  0  0  0
   -4.4324    5.4767   -1.6976 H   0  0  0  0  0  0  0  0  0  0  0  0
   -5.6357    3.5422    2.6514 H   0  0  0  0  0  0  0  0  0  0  0  0
   -5.2605    1.8575    2.2378 H   0  0  0  0  0  0  0  0  0  0  0  0
   -3.6884    3.5694    4.2266 H   0  0  0  0  0  0  0  0  0  0  0  0
   -4.8510    2.3094    4.6542 H   0  0  0  0  0  0  0  0  0  0  0  0
   -3.3514    1.8819    3.8258 H   0  0  0  0  0  0  0  0  0  0  0  0
    3.0560    9.3574   -6.5018 H   0  0  0  0  0  0  0  0  0  0  0  0
    2.7690   11.0751   -6.1732 H   0  0  0  0  0  0  0  0  0  0  0  0
    4.2176   10.9142   -4.1408 H   0  0  0  0  0  0  0  0  0  0  0  0
    5.1004   10.4182   -5.5882 H   0  0  0  0  0  0  0  0  0  0  0  0
    4.4862    9.1988   -4.4656 H   0  0  0  0  0  0  0  0  0  0  0  0
    2.3813    7.5481   -1.6430 H   0  0  0  0  0  0  0  0  0  0  0  0
    3.1939    3.5457    0.8131 H   0  0  0  0  0  0  0  0  0  0  0  0
    5.2372   -1.6538    3.7201 H   0  0  0  0  0  0  0  0  0  0  0  0
    4.2502   -2.4750    2.4972 H   0  0  0  0  0  0  0  0  0  0  0  0
    7.2739   -2.0377    2.3328 H   0  0  0  0  0  0  0  0  0  0  0  0
    6.2925   -2.8675    1.1206 H   0  0  0  0  0  0  0  0  0  0  0  0
    6.4729   -3.5624    2.7345 H   0  0  0  0  0  0  0  0  0  0  0  0
   10.2822    8.0433   -4.4085 H   0  0  0  0  0  0  0  0  0  0  0  0
   10.0806    9.6280   -3.6354 H   0  0  0  0  0  0  0  0  0  0  0  0
    7.7934    9.8102   -4.6053 H   0  0  0  0  0  0  0  0  0  0  0  0
    7.9861    8.2317   -5.3745 H   0  0  0  0  0  0  0  0  0  0  0  0
    9.0017    9.5886   -5.8761 H   0  0  0  0  0  0  0  0  0  0  0  0
   10.0694    4.7423   -0.8164 H   0  0  0  0  0  0  0  0  0  0  0  0
   10.8190    2.3497   -0.1003 H   0  0  0  0  0  0  0  0  0  0  0  0
  1  2  2  0  0  0  0
  2  3  1  0  0  0  0
  3  4  2  0  0  0  0
  4  5  1  0  0  0  0
  5  6  1  0  0  0  0
  6  7  1  0  0  0  0
  7  8  1  0  0  0  0
  8  9  1  0  0  0  0
  7 10  2  0  0  0  0
 10 11  1  0  0  0  0
 10 12  1  0  0  0  0
 12 13  1  0  0  0  0
  4 14  1  0  0  0  0
 14 15  2  0  0  0  0
 15 16  1  0  0  0  0
 16 17  1  0  0  0  0
 17 18  1  0  0  0  0
 18 19  1  0  0  0  0
 19 20  1  0  0  0  0
 20 21  1  0  0  0  0
 19 22  2  0  0  0  0
 22 23  1  0  0  0  0
 23 24  1  0  0  0  0
 22 25  1  0  0  0  0
 16 26  2  0  0  0  0
 26 27  1  0  0  0  0
 15 28  1  0  0  0  0
 28 29  2  0  0  0  0
 29 30  1  0  0  0  0
 29 31  1  0  0  0  0
 31 32  2  0  0  0  0
 32 33  1  0  0  0  0
 33 34  2  0  0  0  0
 34 35  1  0  0  0  0
 35 36  1  0  0  0  0
 36 37  1  0  0  0  0
 37 38  1  0  0  0  0
 38 39  1  0  0  0  0
 37 40  2  0  0  0  0
 40 41  1  0  0  0  0
 40 42  1  0  0  0  0
 42 43  1  0  0  0  0
 34 44  1  0  0  0  0
 44 45  2  0  0  0  0
 45 46  1  0  0  0  0
 46 47  1  0  0  0  0
 47 48  1  0  0  0  0
 48 49  1  0  0  0  0
 49 50  1  0  0  0  0
 50 51  1  0  0  0  0
 49 52  2  0  0  0  0
 52 53  1  0  0  0  0
 53 54  1  0  0  0  0
 52 55  1  0  0  0  0
 46 56  2  0  0  0  0
 56 57  1  0  0  0  0
 45 58  1  0  0  0  0
 58 59  2  0  0  0  0
 59 60  1  0  0  0  0
 59 61  1  0  0  0  0
 61 62  2  0  0  0  0
 62 63  1  0  0  0  0
 63 64  2  0  0  0  0
 64 65  1  0  0  0  0
 65 66  1  0  0  0  0
 66 67  1  0  0  0  0
 67 68  1  0  0  0  0
 68 69  1  0  0  0  0
 67 70  2  0  0  0  0
 70 71  1  0  0  0  0
 70 72  1  0  0  0  0
 72 73  1  0  0  0  0
 64 74  1  0  0  0  0
 74 75  2  0  0  0  0
 75 76  1  0  0  0  0
 76 77  1  0  0  0  0
 77 78  1  0  0  0  0
 78 79  1  0  0  0  0
 79 80  1  0  0  0  0
 80 81  1  0  0  0  0
 79 82  2  0  0  0  0
 82 83  1  0  0  0  0
 83 84  1  0  0  0  0
 82 85  1  0  0  0  0
 76 86  2  0  0  0  0
 86 87  1  0  0  0  0
 75 88  1  0  0  0  0
 88 89  2  0  0  0  0
 89 90  1  0  0  0  0
 89 91  1  0  0  0  0
 91 92  1  0  0  0  0
 92 93  1  0  0  0  0
 93 94  2  0  0  0  0
 94 95  1  0  0  0  0
 95 96  1  0  0  0  0
 96 97  2  0  0  0  0
 97 98  1  0  0  0  0
 98 99  1  0  0  0  0
 97100  1  0  0  0  0
100101  2  0  0  0  0
 93102  1  0  0  0  0
102103  2  0  0  0  0
103104  1  0  0  0  0
104105  2  0  0  0  0
105106  1  0  0  0  0
106107  1  0  0  0  0
107108  1  0  0  0  0
108109  1  0  0  0  0
109110  1  0  0  0  0
108111  2  0  0  0  0
111112  1  0  0  0  0
111113  1  0  0  0  0
113114  1  0  0  0  0
105115  1  0  0  0  0
115116  2  0  0  0  0
116117  1  0  0  0  0
117118  1  0  0  0  0
118119  1  0  0  0  0
119120  1  0  0  0  0
120121  1  0  0  0  0
121122  1  0  0  0  0
120123  2  0  0  0  0
123124  1  0  0  0  0
124125  1  0  0  0  0
123126  1  0  0  0  0
117127  2  0  0  0  0
127128  1  0  0  0  0
116129  1  0  0  0  0
129130  2  0  0  0  0
130131  1  0  0  0  0
130132  1  0  0  0  0
132133  2  0  0  0  0
133134  1  0  0  0  0
134135  2  0  0  0  0
135136  1  0  0  0  0
136137  1  0  0  0  0
137138  1  0  0  0  0
138139  1  0  0  0  0
139140  1  0  0  0  0
138141  2  0  0  0  0
141142  1  0  0  0  0
141143  1  0  0  0  0
143144  1  0  0  0  0
135145  1  0  0  0  0
145146  2  0  0  0  0
146147  1  0  0  0  0
147148  1  0  0  0  0
148149  1  0  0  0  0
149150  1  0  0  0  0
150151  1  0  0  0  0
151152  1  0  0  0  0
150153  2  0  0  0  0
153154  1  0  0  0  0
154155  1  0  0  0  0
153156  1  0  0  0  0
147157  2  0  0  0  0
157158  1  0  0  0  0
146159  1  0  0  0  0
159160  2  0  0  0  0
160161  1  0  0  0  0
 27  1  1  0  0  0  0
 57 31  1  0  0  0  0
 87 61  1  0  0  0  0
 95 91  2  0  0  0  0
128102  1  0  0  0  0
158132  1  0  0  0  0
 26  3  1  0  0  0  0
 56 33  1  0  0  0  0
 86 63  1  0  0  0  0
101 94  1  0  0  0  0
127104  1  0  0  0  0
157134  1  0  0  0  0
 12  5  2  0  0  0  0
 30 14  1  0  0  0  0
 42 35  2  0  0  0  0
 60 44  1  0  0  0  0
 72 65  2  0  0  0  0
 90 74  1  0  0  0  0
113106  2  0  0  0  0
131115  1  0  0  0  0
143136  2  0  0  0  0
161145  1  0  0  0  0
 23 17  2  0  0  0  0
 53 47  2  0  0  0  0
 83 77  2  0  0  0  0
124118  2  0  0  0  0
154148  2  0  0  0  0
  1162  1  0  0  0  0
  2163  1  0  0  0  0
  8164  1  0  0  0  0
  8165  1  0  0  0  0
  9166  1  0  0  0  0
  9167  1  0  0  0  0
  9168  1  0  0  0  0
 20169  1  0  0  0  0
 20170  1  0  0  0  0
 21171  1  0  0  0  0
 21172  1  0  0  0  0
 21173  1  0  0  0  0
 28174  1  0  0  0  0
 32175  1  0  0  0  0
 38176  1  0  0  0  0
 38177  1  0  0  0  0
 39178  1  0  0  0  0
 39179  1  0  0  0  0
 39180  1  0  0  0  0
 50181  1  0  0  0  0
 50182  1  0  0  0  0
 51183  1  0  0  0  0
 51184  1  0  0  0  0
 51185  1  0  0  0  0
 58186  1  0  0  0  0
 62187  1  0  0  0  0
 68188  1  0  0  0  0
 68189  1  0  0  0  0
 69190  1  0  0  0  0
 69191  1  0  0  0  0
 69192  1  0  0  0  0
 80193  1  0  0  0  0
 80194  1  0  0  0  0
 81195  1  0  0  0  0
 81196  1  0  0  0  0
 81197  1  0  0  0  0
 88198  1  0  0  0  0
 96199  1  0  0  0  0
 99200  1  0  0  0  0
 99201  1  0  0  0  0
 99202  1  0  0  0  0
100203  1  0  0  0  0
101204  1  0  0  0  0
103205  1  0  0  0  0
109206  1  0  0  0  0
109207  1  0  0  0  0
110208  1  0  0  0  0
110209  1  0  0  0  0
110210  1  0  0  0  0
121211  1  0  0  0  0
121212  1  0  0  0  0
122213  1  0  0  0  0
122214  1  0  0  0  0
122215  1  0  0  0  0
129216  1  0  0  0  0
133217  1  0  0  0  0
139218  1  0  0  0  0
139219  1  0  0  0  0
140220  1  0  0  0  0
140221  1  0  0  0  0
140222  1  0  0  0  0
151223  1  0  0  0  0
151224  1  0  0  0  0
152225  1  0  0  0  0
152226  1  0  0  0  0
152227  1  0  0  0  0
159228  1  0  0  0  0
160229  1  0  0  0  0
M  END
