254

C          2.27470      -13.52520        2.74600
C          3.06140      -13.12670        1.72540
C          2.65830      -11.87690        1.17130
C          3.25460      -11.14930        0.12850
C          4.50360      -11.57160       -0.48390
S          4.66530      -11.70750       -2.20890
C          6.33080      -12.16480       -2.09530
C          7.14540      -12.39430       -3.32000
C          7.47610      -11.06870       -4.01000
C          6.72460      -12.20010       -0.79100
Cl         8.31220      -12.60220       -0.27650
C          5.69050      -11.86910        0.12610
Cl         5.95530      -11.77190        1.81940
C          2.60590       -9.99160       -0.28160
C          1.42820       -9.51510        0.34010
C          0.88150      -10.19300        1.43830
C         -0.25230       -9.63770        2.16950
S         -0.07880       -8.15360        3.05920
C         -1.71740       -8.20340        3.61100
C         -2.25360       -7.17000        4.53930
C         -1.95380       -7.52930        5.99600
C         -2.34550       -9.31240        3.12870
C         -1.51640      -10.12960        2.31230
Cl        -2.07380      -11.55940        1.55010
Cl        -3.98560       -9.69370        3.45260
C          1.49930      -11.37650        1.81460
S          0.98940      -12.42490        3.10570
C          0.93310       -8.34490       -0.28340
C          1.71110       -7.90620       -1.31000
S          3.11580       -8.92440       -1.56310
C          1.49450       -6.73610       -2.09820
C          2.40460       -6.01830       -2.81190
C          1.87440       -4.81810       -3.34880
C          2.56410       -3.80620       -4.03750
C          3.97470       -3.96430       -4.35690
S          4.52170       -5.32270       -5.29480
C          6.17630       -4.82050       -5.20250
C          7.25780       -5.64430       -5.80930
C          7.50330       -6.91470       -4.99190
C          6.28080       -3.67020       -4.48010
Cl         7.76380       -2.86770       -4.15990
C          5.03470       -3.17940       -4.00160
Cl         4.91380       -1.79060       -3.00540
C          1.84700       -2.66290       -4.35760
C          0.46770       -2.50890       -4.06130
C         -0.24020       -3.54990       -3.43200
C         -1.66740       -3.46890       -3.18590
S         -2.34420       -3.96860       -1.66490
C         -3.95620       -3.59190       -2.15500
C         -5.08710       -3.74200       -1.19840
C         -5.02450       -2.67090       -0.10790
C         -3.96020       -3.12200       -3.43500
C         -2.66970       -3.06080       -4.02690
Cl        -2.44670       -2.62070       -5.67100
Cl        -5.37810       -2.65280       -4.27960
C          0.50300       -4.65890       -3.04230
S         -0.09620       -6.00440       -2.11890
C          0.00300       -1.21620       -4.40260
C          0.95780       -0.42130       -4.96560
S          2.49460       -1.24350       -5.12810
C          0.84180        0.96620       -5.27470
C          1.85120        1.86370       -5.46760
C          1.41200        3.21020       -5.49890
C          2.20830        4.37300       -5.49960
C          3.63820        4.28860       -5.72850
S          4.79090        5.06770       -4.68590
C          6.13410        4.49240       -5.61310
C          7.52900        4.87130       -5.25750
C          7.85960        6.27360       -5.77390
C          5.69930        3.75380       -6.67320
Cl         6.74040        3.03090       -7.82990
C          4.28620        3.62840       -6.73790
Cl         3.49330        2.79690       -8.01260
C          1.56840        5.56670       -5.19060
C          0.16390        5.65750       -5.03890
C         -0.64520        4.51340       -5.14360
C         -2.07920        4.60930       -4.90490
S         -3.09760        5.58860       -5.91700
C         -4.50910        5.22820       -4.98000
C         -5.84670        5.74720       -5.37580
C         -6.42270        4.94400       -6.54370
C         -4.19080        4.39890       -3.94740
C         -2.81280        4.05230       -3.89630
Cl        -2.14950        3.10020       -2.63410
Cl        -5.32200        3.82550       -2.79320
C          0.00710        3.30480       -5.32790
S         -0.73180        1.73320       -5.23200
C         -0.23790        6.90540       -4.51310
C          0.80910        7.72290       -4.18730
S          2.33970        7.06770       -4.74190
C          0.74050        8.68000       -3.12470
C         -0.40920        9.06360       -2.49240
C         -0.22930        9.29990       -1.10830
C         -1.24220        9.29030       -0.13480
C         -2.65130        9.24400       -0.51430
S         -3.76170       10.51040       -0.10080
C         -5.08920        9.69740       -0.85860
C         -6.46450       10.26650       -0.82560
C         -7.19730        9.84350        0.45000
C         -4.67980        8.50760       -1.38200
Cl        -5.70890        7.41270       -2.20810
C         -3.29680        8.24720       -1.18900
Cl        -2.54680        6.78650       -1.70530
C         -0.84580        9.05930        1.17230
C          0.51280        8.95450        1.55460
C          1.53660        9.15240        0.60390
C          2.92430        9.10080        1.01510
S          4.12360        8.16580        0.17100
C          5.36930        8.61300        1.28680
C          6.76760        8.13820        1.10060
C          7.45750        8.89890       -0.03370
C          4.87540        9.45160        2.24170
C          3.48910        9.72190        2.09850
Cl         2.64420       10.78300        3.14870
Cl         5.81580       10.12410        3.51020
C          1.13320        9.22260       -0.72360
S          2.15420        8.92460       -2.10590
C          0.65500        8.29190        2.79920
C         -0.52890        7.85700        3.32270
S         -1.90940        8.47290        2.42530
C         -0.69630        6.69570        4.14480
C          0.20280        5.66620        4.14940
C         -0.34310        4.43810        4.58610
C          0.23030        3.16320        4.42440
C          1.61060        3.00870        4.00710
S          2.04270        1.94750        2.69690
C          3.71990        2.35540        2.81140
C          4.72700        1.75580        1.89100
C          4.40260        0.30580        1.54490
C          3.91760        3.26310        3.80980
Cl         5.45250        3.91180        4.22450
C          2.72740        3.63700        4.48880
Cl         2.73230        4.70690        5.83150
C         -0.63050        2.08160        4.55070
C         -1.98920        2.20110        4.93580
C         -2.52580        3.47430        5.21180
C         -3.90410        3.66790        5.62410
S         -5.23870        2.93290        4.78520
C         -6.40800        3.68880        5.81210
C         -7.86220        3.41530        5.65060
C         -8.24090        2.07660        6.28860
C         -5.78590        4.45490        6.75200
C         -4.36960        4.45550        6.64230
Cl        -3.36500        5.29980        7.74370
Cl        -6.61360        5.34950        7.95940
C         -1.69820        4.56780        4.97450
S         -2.23140        6.22470        4.83790
C         -2.66220        0.95280        4.87450
C         -1.87810       -0.06230        4.41290
S         -0.22090        0.44210        4.15140
C         -2.25220       -1.36570        3.96940
C         -1.49190       -2.16780        3.17140
C         -2.16850       -3.32420        2.71790
C         -1.70460       -4.28580        1.80550
C         -0.41500       -4.10150        1.15480
S          0.85000       -5.28830        1.24060
C          1.93550       -4.31790        0.30840
C          3.34660       -4.72790        0.07040
C          4.26420       -4.14600        1.14890
C          1.33610       -3.14640       -0.04700
Cl         2.08930       -1.93950       -1.00570
C          0.01030       -3.01310        0.44100
Cl        -0.93870       -1.62130        0.11560
C         -2.55390       -5.35200        1.53760
C         -3.84840       -5.46050        2.10040
C         -4.32300       -4.47650        2.98050
C         -5.65320       -4.55400        3.56470
S         -7.08400       -4.62010        2.58060
C         -8.12750       -4.64620        3.96100
C         -9.60460       -4.75250        3.80990
C        -10.03530       -6.21300        3.65370
C         -7.39380       -4.61970        5.10930
C         -5.99110       -4.56090        4.88800
Cl        -4.84920       -4.57220        6.16500
Cl        -8.07720       -4.64470        6.68330
C         -3.46920       -3.42110        3.26980
S         -3.84280       -2.03630        4.26050
C         -4.51810       -6.64040        1.66180
C         -3.77690       -7.37590        0.80970
S         -2.22570       -6.69030        0.47700
H          2.35890      -14.42120        3.32930
H          3.89400      -13.69690        1.35700
H          8.06690      -12.90450       -3.03600
H          6.59180      -13.03220       -4.01200
H          8.04140      -10.42490       -3.34080
H          6.56080      -10.55520       -4.29430
H          8.06840      -11.25020       -4.90260
H         -3.33390       -7.09710        4.39920
H         -1.80640       -6.20240        4.30390
H         -0.88050       -7.59410        6.15670
H         -2.40280       -8.48650        6.24870
H         -2.36200       -6.76820        6.65530
H          0.03090       -7.84950        0.02000
H          3.43200       -6.31880       -2.91140
H          8.16990       -5.04690       -5.84960
H          6.97670       -5.92050       -6.82770
H          6.59700       -7.51400       -4.94570
H          8.29060       -7.50730       -5.44940
H          7.80320       -6.65970       -3.97850
H         -5.04230       -4.72920       -0.73270
H         -6.02600       -3.65900       -1.74760
H         -5.83330       -2.81590        0.60360
H         -4.07680       -2.73070        0.42270
H         -5.11440       -1.67970       -0.54490
H         -0.98650       -0.85800       -4.18480
H          2.88480        1.56970       -5.50210
H          8.21330        4.14520       -5.69950
H          7.64520        4.84850       -4.17250
H          7.76300        6.30890       -6.85600
H          8.87860        6.53970       -5.50630
H          7.18050        7.00370       -5.34000
H         -5.75910        6.79650       -5.66490
H         -6.51550        5.67710       -4.51630
H         -7.40040        5.33150       -6.81700
H         -5.76560        5.01080       -7.40760
H         -6.52710        3.89800       -6.26630
H         -1.25620        7.12100       -4.24970
H         -1.37410        9.05020       -2.96270
H         -6.40750       11.35530       -0.86860
H         -7.01370        9.90860       -1.69870
H         -6.65930       10.19280        1.32790
H         -8.19850       10.26540        0.46220
H         -7.27410        8.76030        0.49860
H          7.31410        8.28790        2.03310
H          6.75970        7.07150        0.86750
H          6.91810        8.75280       -0.96660
H          8.47620        8.54130       -0.15740
H          7.48660        9.96260        0.18870
H          1.60880        8.03510        3.22180
H          1.18440        5.75120        3.72260
H          4.76420        2.34550        0.96940
H          5.70820        1.82260        2.36610
H          4.36180       -0.30030        2.44700
H          3.43990        0.24170        1.04270
H          5.16460       -0.10080        0.88500
H         -8.11180        3.39320        4.58800
H         -8.42350        4.22130        6.12590
H         -9.30470        1.89220        6.16550
H         -7.68880        1.26550        5.81950
H         -8.00970        2.08660        7.35070
H         -3.70410        0.81840        5.10110
H         -0.48140       -1.92270        2.90040
H          3.41690       -5.81630        0.07630
H          3.66120       -4.35880       -0.90800
H          5.29190       -4.44570        0.96340
H          4.21000       -3.06030        1.14130
H          3.96690       -4.50440        2.13140
H        -10.07780       -4.32460        4.69550
H         -9.92210       -4.18470        2.93360
H         -9.57580       -6.65010        2.77030
H         -9.73440       -6.79000        4.52450
H        -11.11520       -6.27430        3.55160
H         -5.50540       -6.91540        1.98390
H         -4.03640       -8.30390        0.33950
