154

C          4.42030        1.27020       13.67040
S          4.75010        0.71440       12.09540
C          3.09850        0.89900       11.59020
C          2.32110        1.38540       12.64550
C          3.09090        1.59740       13.83990
C          2.47310        2.09000       15.00670
C          1.12940        2.36740       15.00070
O          0.60430        2.84310       16.16430
C         -0.76820        3.14710       16.22500
C          0.36840        2.15390       13.82210
C          0.94290        1.67800       12.68010
C          2.76020        0.56870       10.25040
C          3.62150        0.09500        9.29650
C          3.02560       -0.12280        8.03480
C          3.63950       -0.55400        6.84460
C          5.06030       -0.85370        6.78480
S          6.25420        0.29780        7.31050
C          7.56630       -0.74790        6.88710
C          8.98190       -0.31660        7.04900
C          9.45370        0.47870        5.82930
C          7.09130       -1.91330        6.36520
Cl         8.09350       -3.19990        5.83200
C          5.67320       -1.97910        6.30810
Cl         4.84130       -3.37800        5.77150
C          2.83440       -0.64450        5.71630
C          1.44760       -0.35470        5.73430
C          0.82570        0.04560        6.93210
C         -0.59370        0.35700        6.97290
S         -1.29980        1.48000        5.84590
C         -2.88140        1.29460        6.52360
C         -4.05680        1.98740        5.92750
C         -4.54680        1.25230        4.67730
C         -2.84810        0.41110        7.56000
C         -1.55440       -0.11700        7.82230
Cl        -1.27930       -1.30060        9.03080
Cl        -4.22610       -0.03980        8.47800
C          1.63750        0.16390        8.05030
S          1.13530        0.73960        9.61290
C          0.86210       -0.49850        4.45630
C          1.75600       -0.83220        3.47860
S          3.37430       -1.03570        4.10890
C          1.47800       -0.97260        2.08710
C          0.28470       -0.73050        1.46740
C          0.32720       -0.90780        0.06630
C         -0.70450       -0.67800       -0.86520
C         -2.03560       -0.28810       -0.43050
S         -2.90090       -1.23430        0.74730
C         -4.29070       -0.20610        0.67250
C         -5.52020       -0.50940        1.45550
C         -6.44330       -1.45040        0.67740
C         -4.08220        0.80300       -0.21860
Cl        -5.23540        2.02650       -0.55860
C         -2.80600        0.76300       -0.84320
Cl        -2.28210        1.97520       -1.93480
C         -0.39730       -0.86440       -2.20370
C          0.88400       -1.27950       -2.64980
C          1.92410       -1.47110       -1.72110
C          3.26500       -1.80910       -2.16320
S          4.14330       -3.14610       -1.48290
C          5.51740       -2.86200       -2.49660
C          6.74700       -3.69190       -2.37260
C          7.60060       -3.22420       -1.19140
C          5.29800       -1.78430       -3.30150
C          4.02330       -1.18690       -3.11700
Cl         3.54390        0.23720       -3.94990
Cl         6.43610       -1.18920       -4.44360
C          1.61340       -1.29540       -0.37910
S          2.72540       -1.44250        0.95230
C          0.92330       -1.48140       -4.04630
C         -0.25170       -1.18340       -4.68520
S         -1.49690       -0.69720       -3.53930
C         -0.57040       -1.20160       -6.06470
S         -2.24310       -1.20520       -6.53490
C         -1.86590       -1.23320       -8.22480
C         -0.47850       -1.17600       -8.41910
C          0.26010       -1.16970       -7.19440
C          1.66460       -1.05780       -7.22800
C          2.31040       -0.95590       -8.43470
O          3.65410       -0.85240       -8.59370
C          4.47000       -0.86040       -7.44590
C          1.56840       -0.91990       -9.64460
C          0.21120       -1.01030       -9.63960
C         -2.91620       -1.27060       -9.17270
S         -4.40000       -0.43800       -8.82170
C         -5.12120       -0.86130      -10.34260
C         -4.24260       -1.67650      -11.07990
C         -3.00450       -1.92160      -10.40910
C         -2.06010       -2.81530      -10.95350
C         -2.30710       -3.39710      -12.17020
O         -1.47470       -4.26170      -12.80790
C         -0.24680       -4.57950      -12.19910
C         -3.51940       -3.12590      -12.85500
C         -4.46630       -2.30550      -12.32290
C         -6.38920       -0.34670      -10.69890
S         -6.88110       -0.25290      -12.36810
C         -8.35250        0.51540      -11.99050
C         -8.50310        0.70500      -10.63430
C         -7.38440        0.21590       -9.87860
C         -7.42310        0.31300       -8.47980
C         -8.50310        0.89300       -7.85130
O         -8.44360        0.93140       -6.49230
C         -9.50010        1.51690       -5.77190
C         -9.58990        1.40030       -8.60660
C         -9.59410        1.30220       -9.96470
H          5.20980        1.33050       14.39210
H          3.05100        2.25020       15.90220
H         -1.04030        3.93580       15.51600
H         -1.38750        2.26260       16.04420
H         -0.94230        3.50330       17.23920
H         -0.68810        2.36930       13.82060
H          0.33620        1.52510       11.80240
H          4.66090       -0.08580        9.50210
H          9.60620       -1.20380        7.17050
H          9.07240        0.30190        7.94360
H          8.84200        1.36820        5.69950
H          9.37780       -0.12930        4.93150
H         10.48910        0.78190        5.95900
H         -4.85570        2.02250        6.67000
H         -3.78060        3.00910        5.66070
H         -5.40420        1.76770        4.25340
H         -3.75920        1.21290        3.92820
H         -4.83960        0.23640        4.93010
H         -0.18410       -0.35540        4.26460
H         -0.59460       -0.41260        1.99480
H         -6.04330        0.42570        1.66360
H         -5.24120       -0.97420        2.40220
H         -7.33610       -1.66290        1.25910
H         -6.73950       -0.99410       -0.26360
H         -5.93380       -2.38690        0.46380
H          7.32100       -3.61000       -3.29730
H          6.46670       -4.73640       -2.22500
H          8.48970       -3.84300       -1.10500
H          7.03350       -3.29430       -0.26630
H          7.90700       -2.19090       -1.33330
H          1.77900       -1.89450       -4.54340
H          2.20900       -1.00590       -6.30330
H          4.35620       -1.79080       -6.88040
H          4.25330       -0.01100       -6.79190
H          5.49340       -0.78330       -7.80880
H          2.12030       -0.78680      -10.56150
H         -0.34780       -0.92310      -10.55790
H         -1.17590       -3.04220      -10.38210
H         -0.39380       -5.09100      -11.24250
H          0.36570       -3.68620      -12.03950
H          0.26160       -5.24860      -12.89140
H         -3.67520       -3.61780      -13.80150
H         -5.39610       -2.15620      -12.84590
H         -9.03080        0.78420      -12.77510
H         -6.62740       -0.06890       -7.86340
H         -9.21810        1.43350       -4.72340
H        -10.44410        0.98590       -5.93330
H         -9.62720        2.57430       -6.02580
H        -10.42780        1.85920       -8.10630
H        -10.42570        1.67350      -10.54430
