229

C          4.40130      -10.37030        8.50670
C          4.78720       -9.12790        8.86250
C          4.10910       -8.10880        8.13240
C          4.30550       -6.72040        8.19340
C          5.25440       -6.12420        9.12110
S          5.15870       -6.43060       10.83030
C          6.51220       -5.40810       11.17080
C          6.97210       -5.16830       12.56650
C          6.26460       -3.95460       13.17410
C          6.99380       -4.86300       10.01860
Cl         8.33590       -3.79580        9.95560
C          6.28680       -5.26820        8.85440
Cl         6.75810       -4.78120        7.28030
C          3.55700       -5.93940        7.32220
C          2.63000       -6.48510        6.39990
C          2.43040       -7.87420        6.34070
C          1.49320       -8.46830        5.40140
S          1.57960       -8.12630        3.69660
C          0.25580       -9.18310        3.33440
C         -0.21040       -9.38030        1.93480
C          0.86920      -10.02580        1.06600
C         -0.21350       -9.75660        4.47750
C          0.48190       -9.35380        5.64990
Cl         0.01410       -9.87340        7.21400
Cl        -1.52630      -10.86110        4.53140
C          3.18410       -8.65510        7.21060
S          3.19180      -10.39440        7.27310
C          1.98550       -5.47570        5.64320
C          2.39590       -4.21430        5.95700
S          3.59420       -4.20230        7.23240
C          2.01460       -2.99770        5.31910
C          2.52250       -1.74980        5.52800
C          2.01970       -0.77710        4.62860
C          2.36670        0.58100        4.52230
C          3.39350        1.16410        5.36950
S          3.10980        2.61190        6.28710
C          4.72060        2.61820        6.91950
C          5.16160        3.64720        7.90070
C          4.79770        3.23270        9.32850
C          5.42330        1.55380        6.43900
Cl         7.05830        1.22490        6.84280
C          4.67720        0.72970        5.55410
Cl         5.36750       -0.61860        4.74730
C          1.73900        1.31780        3.52600
C          0.83790        0.73800        2.60290
C          0.44310       -0.59930        2.74540
C         -0.60930       -1.17970        1.92230
S         -0.50840       -1.34470        0.19720
C         -2.09360       -2.03340        0.09500
C         -2.66000       -2.50910       -1.19570
C         -2.33280       -3.98800       -1.41590
C         -2.65210       -2.12550        1.33440
C         -1.81290       -1.64410        2.37290
Cl        -2.30190       -1.59310        4.01630
Cl        -4.22860       -2.73500        1.62900
C          1.05380       -1.33000        3.75160
S          0.82160       -3.02880        4.03700
C          0.44080        1.65790        1.60340
C          0.96780        2.89980        1.77200
S          1.99830        3.00830        3.17860
C          0.68510        4.00000        0.88880
C          0.17390        5.22920        1.15910
C         -0.27320        5.91820       -0.00380
C         -1.11700        7.04330       -0.08980
C         -1.54710        7.79750        1.07320
S         -2.13710        7.03600        2.52130
C         -2.47840        8.55230        3.27950
C         -3.10240        8.61810        4.62920
C         -4.62820        8.54520        4.52730
C         -2.15430        9.58090        2.44590
Cl        -2.34530       11.23670        2.85220
C         -1.63000        9.15870        1.19570
Cl        -1.08860       10.26720        0.00720
C         -1.65560        7.32740       -1.34150
C         -1.25620        6.65800       -2.52430
C         -0.37700        5.56880       -2.44870
C         -0.09790        4.70260       -3.59050
S          1.51690        4.44510       -4.17670
C          0.98730        3.31520       -5.37710
C          1.95290        2.63990       -6.28630
C          2.62790        1.45800       -5.58830
C         -0.36160        3.14170       -5.29890
C         -0.97880        3.92480       -4.28620
Cl        -2.66280        3.83490       -3.94990
Cl        -1.25660        2.09270       -6.32060
C          0.03880        5.19670       -1.18050
S          0.78590        3.66920       -0.82770
C         -2.10340        6.95220       -3.61830
C         -3.22760        7.64330       -3.25500
S         -3.10960        8.25940       -1.61990
C         -4.47300        7.25540       -3.87440
C         -4.64910        6.85020       -5.16370
C         -5.36880        5.62590       -5.27490
C         -5.31280        4.75520       -6.38550
C         -5.04760        5.28430       -7.70360
S         -3.97160        4.51830       -8.83680
C         -4.22510        5.74610      -10.02960
C         -3.58080        5.66290      -11.36890
C         -4.38880        4.76350      -12.30750
C         -5.10570        6.68050       -9.57090
Cl        -5.61900        8.04100      -10.48300
C         -5.56650        6.43000       -8.25260
Cl        -6.71980        7.43820       -7.47990
C         -5.35590        3.39540       -6.09340
C         -5.59300        2.89620       -4.78870
C         -5.89410        3.77570       -3.73140
C         -6.01950        3.32960       -2.35400
S         -4.85200        2.24910       -1.64160
C         -5.54730        2.39440       -0.06470
C         -4.99130        1.63940        1.09400
C         -3.46570        1.59160        1.07820
C         -6.61910        3.23590       -0.10240
C         -6.88000        3.77780       -1.39050
Cl        -8.18540        4.84390       -1.69850
Cl        -7.57800        3.62740        1.26610
C         -5.74860        5.12950       -4.00590
S         -5.49310        6.32490       -2.76000
C         -5.23670        1.53410       -4.67350
C         -4.68690        1.00940       -5.80710
S         -4.82110        2.12230       -7.16370
C         -3.81700       -0.11680       -5.82680
S         -2.90660       -0.39440       -4.37740
C         -1.93620       -1.61300       -5.11920
C         -2.31810       -1.81930       -6.44260
C         -3.37480       -0.94440       -6.85520
C         -3.85500       -0.97610       -8.18020
C         -3.28760       -1.84920       -9.07080
O         -3.64170       -1.97820      -10.37450
C         -4.65330       -1.13830      -10.87730
C         -2.23260       -2.71450       -8.66140
C         -1.75480       -2.70510       -7.38980
C         -0.86690       -2.20070       -4.37080
C         -0.48750       -3.50360       -4.29090
C          0.61270       -3.71870       -3.42010
C          1.18000       -4.94480       -3.04340
C          0.62740       -6.21810       -3.47570
S          0.44440       -6.65070       -5.14780
C         -0.19030       -8.21350       -4.75450
C         -0.62820       -9.15630       -5.82000
C         -2.04310       -8.82270       -6.29950
C         -0.26460       -8.36760       -3.40260
Cl        -0.85630       -9.78030       -2.62950
C          0.20240       -7.24090       -2.67530
Cl         0.15450       -7.14980       -0.96710
C          2.28790       -4.89660       -2.20620
C          2.82140       -3.68700       -1.70420
C          2.16530       -2.46930       -1.96420
C          2.62750       -1.23540       -1.35740
S          2.80500        0.22120       -2.29180
C          3.47900        1.09610       -0.96280
C          3.98920        2.48380       -1.13150
C          5.45650        2.47300       -1.56750
C          3.53770        0.30010        0.14210
C          3.03890       -1.01220       -0.06920
Cl         2.90370       -2.14170        1.21570
Cl         4.20380        0.79440        1.64450
C          1.09050       -2.51530       -2.84660
S          0.13830       -1.15580       -3.36810
C          4.04350       -3.91320       -1.00460
C          4.38320       -5.21670       -0.94530
S          3.25590       -6.26350       -1.73280
H          4.75330      -11.30560        8.89620
H          5.53270       -8.92580        9.60920
H          6.76600       -6.05200       13.17240
H          8.04980       -4.99310       12.55550
H          6.61450       -3.78830       14.18930
H          5.18960       -4.11620       13.19650
H          6.47030       -3.06540       12.58380
H         -0.48420       -8.41340        1.50530
H         -1.10030      -10.01160        1.95410
H          0.49710      -10.16500        0.05500
H          1.15290      -10.99460        1.47000
H          1.75170       -9.39090        1.02710
H          1.25040       -5.67120        4.88360
H          3.24590       -1.54350        6.29570
H          6.24370        3.76640        7.81990
H          4.68470        4.59990        7.66530
H          5.12880        3.99060       10.03320
H          3.72110        3.11300        9.42330
H          5.27620        2.28980        9.58010
H         -3.74350       -2.37540       -1.17620
H         -2.25250       -1.91280       -2.01220
H         -2.70980       -4.31530       -2.38110
H         -2.78910       -4.59450       -0.63790
H         -1.25720       -4.14690       -1.39020
H         -0.22000        1.40920        0.79290
H          0.04870        5.59530        2.16130
H         -2.81260        9.55730        5.10400
H         -2.73830        7.78910        5.23840
H         -5.00560        9.37090        3.92950
H         -5.07120        8.60090        5.51790
H         -4.93140        7.61120        4.06030
H          2.71290        3.35500       -6.60620
H          1.41170        2.28700       -7.16590
H          3.30920        0.96030       -6.27240
H          1.88380        0.74140       -5.25080
H          3.18820        1.80050       -4.72240
H         -1.98880        6.49930       -4.58580
H         -4.13080        7.29720       -5.99310
H         -3.51630        6.66770      -11.79020
H         -2.57170        5.26120      -11.26140
H         -5.39170        5.16130      -12.43970
H         -3.90530        4.70730      -13.27900
H         -4.46380        3.76020      -11.89460
H         -5.34610        2.11160        2.01220
H         -5.37970        0.61590        1.07520
H         -3.10040        1.04680        1.94490
H         -3.11310        1.09000        0.17880
H         -3.05150        2.59740        1.10040
H         -5.29210        0.97480       -3.75840
H         -4.65060       -0.30330       -8.45520
H         -5.60690       -1.31250      -10.36910
H         -4.75330       -1.39360      -11.93080
H         -4.37980       -0.08290      -10.78100
H         -1.82430       -3.37520       -9.40940
H         -0.94570       -3.35470       -7.09460
H         -0.99830       -4.29610       -4.80580
H          0.06300       -9.09860       -6.66280
H         -0.60670      -10.17130       -5.41930
H         -2.07600       -7.81480       -6.70680
H         -2.74640       -8.88730       -5.47300
H         -2.34930       -9.52180       -7.07270
H          3.39010        3.00220       -1.88140
H          3.89560        3.01210       -0.18090
H          5.81330        3.49100       -1.69580
H          6.06970        1.98020       -0.81750
H          5.56650        1.94200       -2.51010
H          4.65230       -3.12730       -0.59920
H          5.24730       -5.65140       -0.48250
