94

C         13.39140       -2.64390        1.19770
S         13.53680       -1.13070        0.36660
C         11.83540       -0.72340        0.57860
C         11.24630       -1.72900        1.30290
C         12.11750       -2.81080        1.63260
N         11.36490       -3.72850        2.32930
C         10.06750       -3.27200        2.46480
O          9.15030       -3.83610        3.00350
N         10.02170       -2.03050        1.85040
C         11.30760        0.49650        0.04890
C         10.02950        0.71440       -0.33360
C          9.00920       -0.27450       -0.47070
S          7.31460        0.13960       -0.23890
C          6.74290       -1.50500       -0.49830
C          7.83440       -2.29660       -0.78750
C          9.07670       -1.61280       -0.78740
N         10.03800       -2.52580       -1.15300
C          9.45890       -3.76610       -1.35520
O         10.02310       -4.78400       -1.66450
N          8.10470       -3.60310       -1.12620
C          5.36120       -1.78430       -0.37750
C          4.79710       -3.01820       -0.37800
C          3.40740       -3.24760       -0.27160
S          2.23020       -1.93930       -0.20490
C          0.84340       -3.02280       -0.11230
C          1.31610       -4.32050       -0.12660
C          2.72040       -4.44320       -0.21430
N          3.00490       -5.78850       -0.22070
C          1.83150       -6.52070       -0.13480
O          1.72900       -7.71970       -0.11450
N          0.80300       -5.59590       -0.08320
C         -0.48380       -2.55620       -0.05410
C         -0.82680       -1.23770       -0.05920
C         -2.13530       -0.73250       -0.03300
S         -3.52810       -1.77540        0.00850
C         -4.65210       -0.44620       -0.01730
C         -3.96070        0.77600       -0.05070
C         -2.54350        0.61300       -0.05670
C         -1.69720        1.73670       -0.08830
C         -2.24840        2.99390       -0.11760
O         -1.54870        4.15630       -0.14980
C         -0.14260        4.09640       -0.15170
C         -3.65820        3.15360       -0.11740
C         -4.49510        2.08080       -0.08420
C         -6.03250       -0.72270       -0.01340
S         -7.28290        0.51920       -0.02910
C         -8.61530       -0.62420       -0.04670
C         -8.07220       -1.89560       -0.01560
C         -6.66350       -1.95460       -0.00850
N         -6.31620       -3.28480       -0.00220
C         -7.45580       -4.07020       -0.00760
O         -7.50730       -5.27310       -0.00550
N         -8.52750       -3.19290       -0.01430
C         -9.99850       -0.32560        0.02320
C        -10.70730        0.82030       -0.14320
C        -10.36140        2.11890       -0.60120
S         -8.89480        2.61000       -1.42700
C         -9.44830        4.25030       -1.72240
C        -10.70980        4.38460       -1.19490
C        -11.21210        3.20750       -0.58720
N        -12.46910        3.50350       -0.11600
C        -12.78100        4.82330       -0.39680
O        -13.80140        5.39890       -0.11800
N        -11.68760        5.34470       -1.06360
C         -8.58790        5.15920       -2.41800
C         -8.88980        6.40980       -2.76650
H         14.24470       -3.28140        1.29380
H         11.67190       -4.62170        2.67210
H          9.20110       -1.45090        1.84550
H         12.01540        1.30930       -0.03520
H          9.72710        1.72700       -0.56290
H         11.01620       -2.34430       -1.29230
H          7.44770       -4.35710       -1.21600
H          4.71530       -0.92480       -0.25810
H          5.41440       -3.90300       -0.44740
H          3.91290       -6.21760       -0.24890
H         -0.16450       -5.85740       -0.01180
H         -1.25940       -3.31030       -0.01310
H         -0.02750       -0.50980       -0.09630
H         -0.63050        1.58700       -0.08840
H          0.23920        3.61530        0.75440
H          0.23470        3.56560       -1.03160
H          0.19690        5.13030       -0.18130
H         -4.04240        4.16060       -0.14340
H         -5.56220        2.22780       -0.08610
H         -5.38530       -3.66360        0.00030
H         -9.48440       -3.49920       -0.02650
H        -10.58790       -1.19820        0.28400
H        -11.76560        0.74260        0.08170
H        -13.09380        2.88840        0.37500
H        -11.64590        6.29910       -1.37390
H         -7.61720        4.75200       -2.66780
H         -9.84410        6.85710       -2.55080
H         -8.18110        7.02650       -3.28900
