134

C          7.18320       -4.90220        5.83160
S          5.81490       -3.95160        6.23130
C          5.35350       -3.82260        4.54900
C          6.24550       -4.51620        3.75380
C          7.28910       -5.12460        4.49380
C          8.38710       -5.92170        3.86030
C          8.48470       -5.60320        2.37000
C          9.05110       -4.20810        2.16060
O          9.44710       -3.47680        3.02760
O          9.07840       -3.89810        0.85770
C          9.55880       -2.60420        0.52080
C          7.09790       -5.71580        1.72950
C          6.17060       -4.62630        2.26390
C          4.23320       -3.02760        4.16050
S          4.06410       -2.51070        2.50430
C          2.62980       -1.58410        2.85780
C          2.32000       -1.68760        4.20690
C          3.21200       -2.50130        4.93060
C          3.03400       -2.78050        6.38950
C          1.62700       -2.42830        6.86300
C          0.55890       -3.39080        6.37260
O         -0.58340       -3.36920        6.75300
O          1.01440       -4.25530        5.46330
C          0.06120       -5.15480        4.91860
C          1.26170       -1.02130        6.37780
C          1.15860       -1.00310        4.85510
C          1.92490       -0.92090        1.81940
S          0.28600       -0.40120        2.06170
C          0.08590        0.14470        0.43150
C          1.28120       -0.03610       -0.28000
C          2.32230       -0.63400        0.50210
C          3.58800       -0.82560       -0.07540
C          3.82770       -0.45370       -1.37740
O          5.09200       -0.67920       -1.84020
C          5.41170       -0.30210       -3.15640
C          2.80120        0.14160       -2.14310
C          1.56430        0.34860       -1.60480
C         -1.16200        0.65880       -0.01770
S         -1.56960        0.61770       -1.71400
C         -3.10880        1.37570       -1.42450
C         -3.27640        1.65190       -0.08930
C         -2.19930        1.21550        0.71180
C         -2.17440        1.39040        2.19810
C         -3.40480        2.12370        2.73880
C         -4.52810        1.14400        3.04190
O         -4.52660       -0.03200        2.79570
O         -5.54820        1.77290        3.64130
C         -6.68700        0.97980        3.94600
C         -3.91760        3.16970        1.74300
C         -4.39890        2.45970        0.48060
C         -3.93270        1.67910       -2.56220
S         -3.17840        2.43760       -3.93430
C         -4.66780        2.41190       -4.84120
C         -5.67990        1.84540       -4.09470
C         -5.25510        1.41220       -2.81600
C         -6.14460        0.61440       -1.91600
C         -7.61700        0.90620       -2.22710
C         -8.47860        0.00090       -1.37200
O         -9.12660       -0.92780       -1.77220
O         -8.40990        0.36790       -0.08300
C         -9.11910       -0.42320        0.86290
C         -7.86650        0.67440       -3.71370
C         -7.09780        1.69360       -4.55060
C         -4.69700        2.93700       -6.17270
S         -6.19200        3.47730       -6.89630
C         -5.38120        3.92240       -8.34200
C         -4.04510        3.67250       -8.28860
C         -3.64660        3.11390       -7.04830
C         -2.22020        2.77490       -6.75780
C         -1.38500        2.71180       -8.04400
C          0.07230        2.60500       -7.64130
O          0.91640        3.44020       -7.82740
O          0.30160        1.44810       -7.00600
C          1.61180        1.25190       -6.49430
C         -1.64680        3.94530       -8.90220
C         -3.08470        3.91800       -9.41150
H          7.83400       -5.24120        6.61250
H          9.33210       -5.69510        4.35740
H          8.18580       -6.98960        3.98810
H          9.16980       -6.30380        1.88070
H          9.80670       -2.63320       -0.53740
H          8.78380       -1.85740        0.70600
H         10.43850       -2.35900        1.11880
H          6.68670       -6.70000        1.96400
H          7.17690       -5.62480        0.64610
H          6.44910       -3.66340        1.82240
H          5.14330       -4.83230        1.95230
H          3.75660       -2.19100        6.96300
H          3.24250       -3.83340        6.58950
H          1.58860       -2.45110        7.95700
H         -0.71160       -4.60530        4.37680
H          0.60940       -5.80590        4.24260
H         -0.41310       -5.73410        5.71330
H          2.03470       -0.32530        6.70890
H          0.30880       -0.71520        6.81070
H          1.09480        0.03080        4.50390
H          0.23160       -1.50080        4.54920
H          4.40190       -1.24350        0.49030
H          6.45500       -0.58180       -3.29530
H          5.30680        0.77770       -3.30570
H          4.79710       -0.83250       -3.89140
H          2.99050        0.45630       -3.15720
H          0.80470        0.83140       -2.19740
H         -1.26610        1.93040        2.48120
H         -2.13030        0.40330        2.66770
H         -3.15390        2.61670        3.68300
H         -7.31440        1.58230        4.59770
H         -7.22350        0.72780        3.02860
H         -6.38430        0.05750        4.44540
H         -3.10710        3.85860        1.49700
H         -4.73430        3.73690        2.19050
H         -4.75050        3.17720       -0.26460
H         -5.24320        1.81470        0.74380
H         -5.92770        0.81640       -0.86980
H         -5.94900       -0.44990       -2.08940
H         -7.83910        1.94390       -1.95820
H         -9.60800        0.25640        1.55960
H         -9.85860       -1.04040        0.34960
H         -8.41380       -1.06500        1.39430
H         -7.54720       -0.33770       -3.96760
H         -8.93250        0.74730       -3.93210
H         -7.12360        1.39710       -5.60130
H         -7.59040        2.66970       -4.48250
H         -5.94600        4.33780       -9.15260
H         -1.79910        3.54130       -6.09720
H         -2.15190        1.81940       -6.23320
H         -1.65200        1.80560       -8.59740
H          1.55310        0.38950       -5.83480
H          2.31330        1.06340       -7.30990
H          1.93850        2.13800       -5.94610
H         -1.47690        4.83930       -8.30000
H         -0.95000        3.97260       -9.74090
H         -3.19440        3.11620      -10.14950
H         -3.33060        4.85630       -9.91240
