137

C          6.93590        2.91430       14.28600
C          6.89020        1.80100       13.52860
C          5.74060        1.74540       12.68300
C          5.37730        0.74960       11.77130
C          6.22550       -0.46220       11.52540
C          7.30460       -0.16390       10.48280
C          4.21150        0.96640       11.05950
C          3.39000        2.11030       11.22190
C          3.75270        3.10510       12.13840
C          2.90530        4.31920       12.37430
C          1.78650        4.01360       13.37190
C          4.92080        2.88900       12.84660
S          5.59350        3.97780       14.03740
C          2.26270        2.07500       10.35910
C          2.21500        0.96940        9.56190
S          3.56460       -0.10910        9.84830
C          1.26270        0.65710        8.54320
C          0.14350        1.35460        8.19100
C         -0.53360        0.81950        7.06560
C         -1.67280        1.31790        6.41510
C         -2.42460        2.50930        6.92830
C         -3.38930        2.10210        8.04340
C         -2.07240        0.64230        5.28010
C         -1.41240       -0.50510        4.77130
C         -0.30440       -1.03230        5.44720
C          0.44110       -2.22940        4.93920
C          1.46750       -1.82220        3.88010
C          0.11310       -0.34030        6.56710
S          1.52030       -0.73800        7.51740
C         -1.97010       -0.93360        3.54480
C         -3.00790       -0.16270        3.09420
S         -3.39460        1.11510        4.23710
C         -3.61590       -0.26550        1.81640
S         -2.85390       -1.29870        0.64430
C         -3.89030       -0.76910       -0.64070
C         -4.83690        0.13790       -0.16060
C         -4.68710        0.41980        1.23570
C         -5.57830        1.30500        1.87570
C         -6.57750        1.89720        1.14820
O         -7.49830        2.76340        1.64610
C         -7.43050        3.09960        3.01070
C         -6.72340        1.61550       -0.23720
C         -5.88350        0.75980       -0.87670
C         -3.59300       -1.21410       -1.95580
C         -2.76340       -2.25380       -2.27950
C         -2.49010       -2.37160       -3.66090
C         -1.65140       -3.29460       -4.30370
C         -0.99810       -4.42170       -3.56210
C         -1.97760       -5.58010       -3.36550
C         -1.47700       -3.11600       -5.65980
C         -2.08710       -2.07570       -6.40680
C         -2.96610       -1.18450       -5.77260
C         -3.68940       -0.11220       -6.53000
C         -4.92510       -0.68260       -7.22830
C         -3.14120       -1.36170       -4.41510
S         -4.12800       -0.34830       -3.38690
C         -1.65890       -2.07690       -7.75440
C         -0.76550       -3.06810       -8.06470
S         -0.44150       -4.09190       -6.67370
C         -0.09370       -3.22910       -9.30300
S         -0.12240       -1.90420      -10.42750
C          0.92460       -2.70130      -11.55820
C          1.26680       -3.97520      -11.07890
C          0.69140       -4.27240       -9.80320
C          0.92780       -5.52040       -9.19210
C          1.74290       -6.43220       -9.81010
O          2.04580       -7.66520       -9.32500
C          1.48970       -8.05170       -8.09160
C          2.35490       -6.11650      -11.05110
C          2.12370       -4.92810      -11.67090
C          1.27620       -2.06820      -12.77530
S          1.72030       -2.99910      -14.17830
C          1.90820       -1.61510      -15.15260
C          1.65270       -0.45440      -14.45600
C          1.28630       -0.69910      -13.08940
C          1.04410        0.39820      -12.24810
C          1.13050        1.68170      -12.73730
O          0.88680        2.67530      -11.83680
C          0.97260        4.01610      -12.25180
C          1.46010        1.91440      -14.09630
C          1.72150        0.87330      -14.93400
H          7.68620        3.19880       14.99790
H          7.64630        1.03740       13.55750
H          6.69320       -0.78680       12.45620
H          5.59050       -1.27320       11.16100
H          7.94790        0.64580       10.82070
H          6.84530        0.13140        9.54230
H          7.91560       -1.04610       10.30770
H          3.53220        5.12010       12.77250
H          2.47390        4.66080       11.43170
H          1.15220        3.21220       12.99970
H          1.17440        4.89710       13.53630
H          2.20900        3.70270       14.32450
H          1.52030        2.85090       10.32220
H         -0.17930        2.23650        8.71340
H         -2.99110        2.95410        6.10680
H         -1.72500        3.25820        7.30380
H         -4.10870        1.37660        7.67050
H         -2.84610        1.65170        8.87130
H         -3.93110        2.97010        8.41170
H          0.95870       -2.70690        5.77450
H         -0.25950       -2.95000        4.51360
H          0.97670       -1.33830        3.03860
H          2.00230       -2.69640        3.51700
H          2.18790       -1.12680        4.30460
H         -1.59840       -1.76930        2.97900
H         -5.46260        1.48710        2.93020
H         -8.23870        3.80910        3.18070
H         -7.57810        2.22120        3.64710
H         -6.47390        3.56930        3.26050
H         -7.53340        2.10070       -0.75780
H         -6.01600        0.54320       -1.92450
H         -2.34480       -2.89960       -1.52790
H         -0.64470       -4.07230       -2.59030
H         -0.13520       -4.77180       -4.13320
H         -2.31790       -5.95150       -4.32960
H         -2.84570       -5.25230       -2.79810
H         -1.49760       -6.39530       -2.82940
H         -3.02340        0.33320       -7.27130
H         -3.99810        0.67080       -5.83350
H         -5.44480        0.09970       -7.77630
H         -4.64000       -1.46700       -7.92580
H         -5.60870       -1.10560       -6.49550
H         -1.98170       -1.35840       -8.48680
H          0.45750       -5.73440       -8.24830
H          1.80150       -7.38190       -7.28400
H          1.86800       -9.05410       -7.89790
H          0.39620       -8.07810       -8.13610
H          3.00870       -6.85600      -11.48490
H          2.60550       -4.71050      -12.61000
H          2.20180       -1.72040      -16.17760
H          0.80350        0.26630      -11.20700
H          0.23780        4.24810      -13.02970
H          1.97640        4.26610      -12.61090
H          0.75290        4.60970      -11.36550
H          1.51670        2.92340      -14.47270
H          1.98830        1.04660      -15.96560
