
  xtb     03022222213D
 energy: -214.575575163536 gnorm: 0.000342517086 xtb: 6.4.1 (unknown)
104115  0     0  0            999 V2000
    3.7228    7.0013    5.5189 C   0  0  0  0  0  0  0  0  0  0  0  0
    3.5216    5.6282    4.5353 S   0  0  0  0  0  0  0  0  0  0  0  0
    1.7821    5.6887    4.6580 C   0  0  0  0  0  0  0  0  0  0  0  0
    1.3936    6.7384    5.5004 C   0  0  0  0  0  0  0  0  0  0  0  0
    2.5169    7.5001    5.9696 C   0  0  0  0  0  0  0  0  0  0  0  0
    2.3046    8.6133    6.8083 C   0  0  0  0  0  0  0  0  0  0  0  0
    1.0356    8.9523    7.1968 C   0  0  0  0  0  0  0  0  0  0  0  0
    0.8092   10.1672    8.0139 C   0  0  0  0  0  0  0  0  0  0  0  0
   -0.1914   10.8321    8.0387 O   0  0  0  0  0  0  0  0  0  0  0  0
    1.8974   10.4960    8.7384 O   0  0  0  0  0  0  0  0  0  0  0  0
   -0.0770    8.1435    6.7986 C   0  0  0  0  0  0  0  0  0  0  0  0
   -1.2916    8.4668    7.2811 O   0  0  0  0  0  0  0  0  0  0  0  0
    0.1105    7.0554    5.9837 C   0  0  0  0  0  0  0  0  0  0  0  0
    1.0075    4.7360    3.9562 C   0  0  0  0  0  0  0  0  0  0  0  0
    1.6395    3.1448    3.6858 S   0  0  0  0  0  0  0  0  0  0  0  0
    0.2082    2.5906    2.8476 C   0  0  0  0  0  0  0  0  0  0  0  0
   -0.7410    3.6382    2.7957 C   0  0  0  0  0  0  0  0  0  0  0  0
   -0.2716    4.8512    3.3877 C   0  0  0  0  0  0  0  0  0  0  0  0
   -1.0465    6.0158    3.2774 C   0  0  0  0  0  0  0  0  0  0  0  0
   -2.3020    5.9736    2.7219 C   0  0  0  0  0  0  0  0  0  0  0  0
   -3.0956    7.2191    2.6142 C   0  0  0  0  0  0  0  0  0  0  0  0
   -3.8929    7.4906    1.7589 O   0  0  0  0  0  0  0  0  0  0  0  0
   -2.8062    8.0725    3.6201 O   0  0  0  0  0  0  0  0  0  0  0  0
   -2.8224    4.7385    2.2413 C   0  0  0  0  0  0  0  0  0  0  0  0
   -4.0896    4.7192    1.7877 O   0  0  0  0  0  0  0  0  0  0  0  0
   -2.0392    3.6073    2.2636 C   0  0  0  0  0  0  0  0  0  0  0  0
    0.1597    1.3175    2.2666 C   0  0  0  0  0  0  0  0  0  0  0  0
   -1.0468    0.9206    1.0789 S   0  0  0  0  0  0  0  0  0  0  0  0
   -0.3643   -0.6423    0.7087 C   0  0  0  0  0  0  0  0  0  0  0  0
    0.7483   -0.8807    1.5500 C   0  0  0  0  0  0  0  0  0  0  0  0
    1.0351    0.2128    2.4293 C   0  0  0  0  0  0  0  0  0  0  0  0
    2.0654    0.0809    3.3578 C   0  0  0  0  0  0  0  0  0  0  0  0
    2.8149   -1.0802    3.4260 C   0  0  0  0  0  0  0  0  0  0  0  0
    3.8890   -1.2079    4.4113 C   0  0  0  0  0  0  0  0  0  0  0  0
    4.5943   -2.1947    4.5392 O   0  0  0  0  0  0  0  0  0  0  0  0
    4.0590   -0.1361    5.1930 O   0  0  0  0  0  0  0  0  0  0  0  0
    2.5312   -2.1708    2.5504 C   0  0  0  0  0  0  0  0  0  0  0  0
    3.2079   -3.3189    2.6028 O   0  0  0  0  0  0  0  0  0  0  0  0
    1.5043   -2.0523    1.6326 C   0  0  0  0  0  0  0  0  0  0  0  0
   -0.8752   -1.4129   -0.3398 C   0  0  0  0  0  0  0  0  0  0  0  0
    0.0932   -2.6342   -1.1104 S   0  0  0  0  0  0  0  0  0  0  0  0
   -1.0822   -2.9670   -2.3565 C   0  0  0  0  0  0  0  0  0  0  0  0
   -2.2432   -2.1811   -2.1259 C   0  0  0  0  0  0  0  0  0  0  0  0
   -2.1241   -1.3083   -1.0043 C   0  0  0  0  0  0  0  0  0  0  0  0
   -3.2017   -0.5012   -0.6334 C   0  0  0  0  0  0  0  0  0  0  0  0
   -4.3766   -0.5169   -1.3597 C   0  0  0  0  0  0  0  0  0  0  0  0
   -5.3602    0.3110   -0.9148 O   0  0  0  0  0  0  0  0  0  0  0  0
   -6.5862    0.3428   -1.6073 C   0  0  0  0  0  0  0  0  0  0  0  0
   -4.4919   -1.3705   -2.4697 C   0  0  0  0  0  0  0  0  0  0  0  0
   -3.4528   -2.1877   -2.8344 C   0  0  0  0  0  0  0  0  0  0  0  0
   -0.7942   -3.8564   -3.3973 C   0  0  0  0  0  0  0  0  0  0  0  0
   -1.8853   -4.0540   -4.7408 S   0  0  0  0  0  0  0  0  0  0  0  0
   -0.8706   -5.1996   -5.5636 C   0  0  0  0  0  0  0  0  0  0  0  0
    0.3188   -5.3916   -4.8483 C   0  0  0  0  0  0  0  0  0  0  0  0
    0.3590   -4.6613   -3.6161 C   0  0  0  0  0  0  0  0  0  0  0  0
    1.4863   -4.8044   -2.8115 C   0  0  0  0  0  0  0  0  0  0  0  0
    2.5713   -5.5730   -3.2041 C   0  0  0  0  0  0  0  0  0  0  0  0
    3.6856   -5.6206   -2.2464 C   0  0  0  0  0  0  0  0  0  0  0  0
    3.7131   -5.0273   -1.1978 O   0  0  0  0  0  0  0  0  0  0  0  0
    4.7370   -6.4012   -2.6187 O   0  0  0  0  0  0  0  0  0  0  0  0
    2.5611   -6.2192   -4.4745 C   0  0  0  0  0  0  0  0  0  0  0  0
    3.6004   -6.9205   -4.9593 O   0  0  0  0  0  0  0  0  0  0  0  0
    1.4411   -6.1188   -5.2686 C   0  0  0  0  0  0  0  0  0  0  0  0
   -1.3000   -5.7493   -6.7930 C   0  0  0  0  0  0  0  0  0  0  0  0
   -2.2571   -4.7893   -7.8799 S   0  0  0  0  0  0  0  0  0  0  0  0
   -2.3252   -6.0318   -9.0536 C   0  0  0  0  0  0  0  0  0  0  0  0
   -1.6668   -7.1675   -8.6428 C   0  0  0  0  0  0  0  0  0  0  0  0
   -1.0913   -7.0271   -7.3337 C   0  0  0  0  0  0  0  0  0  0  0  0
   -0.5137   -8.1522   -6.7305 C   0  0  0  0  0  0  0  0  0  0  0  0
   -0.4092   -9.3440   -7.4102 C   0  0  0  0  0  0  0  0  0  0  0  0
    0.2273  -10.4625   -6.6840 C   0  0  0  0  0  0  0  0  0  0  0  0
    0.4134  -10.4594   -5.4889 O   0  0  0  0  0  0  0  0  0  0  0  0
    0.6117  -11.4846   -7.4532 O   0  0  0  0  0  0  0  0  0  0  0  0
   -0.9171   -9.4614   -8.7439 C   0  0  0  0  0  0  0  0  0  0  0  0
   -0.8029  -10.6502   -9.3764 O   0  0  0  0  0  0  0  0  0  0  0  0
   -1.5437   -8.3959   -9.3306 C   0  0  0  0  0  0  0  0  0  0  0  0
    4.7051    7.3755    5.7258 H   0  0  0  0  0  0  0  0  0  0  0  0
    3.1462    9.2038    7.1330 H   0  0  0  0  0  0  0  0  0  0  0  0
    1.7146   11.3035    9.2434 H   0  0  0  0  0  0  0  0  0  0  0  0
   -1.9682    7.8960    6.8945 H   0  0  0  0  0  0  0  0  0  0  0  0
   -0.7326    6.4315    5.7267 H   0  0  0  0  0  0  0  0  0  0  0  0
   -0.6421    6.9614    3.5978 H   0  0  0  0  0  0  0  0  0  0  0  0
   -3.3151    8.8908    3.5089 H   0  0  0  0  0  0  0  0  0  0  0  0
   -4.3127    3.8445    1.4431 H   0  0  0  0  0  0  0  0  0  0  0  0
   -2.4477    2.6871    1.8767 H   0  0  0  0  0  0  0  0  0  0  0  0
    2.2826    0.8668    4.0606 H   0  0  0  0  0  0  0  0  0  0  0  0
    4.7884   -0.2988    5.8113 H   0  0  0  0  0  0  0  0  0  0  0  0
    3.9053   -3.2520    3.2910 H   0  0  0  0  0  0  0  0  0  0  0  0
    1.2981   -2.9040    1.0079 H   0  0  0  0  0  0  0  0  0  0  0  0
   -3.1564    0.1295    0.2370 H   0  0  0  0  0  0  0  0  0  0  0  0
   -6.4535    0.6578   -2.6468 H   0  0  0  0  0  0  0  0  0  0  0  0
   -7.1981    1.0771   -1.0858 H   0  0  0  0  0  0  0  0  0  0  0  0
   -7.0889   -0.6291   -1.5804 H   0  0  0  0  0  0  0  0  0  0  0  0
   -5.4063   -1.4083   -3.0391 H   0  0  0  0  0  0  0  0  0  0  0  0
   -3.5935   -2.8516   -3.6693 H   0  0  0  0  0  0  0  0  0  0  0  0
    1.5638   -4.3248   -1.8503 H   0  0  0  0  0  0  0  0  0  0  0  0
    5.4086   -6.3756   -1.9195 H   0  0  0  0  0  0  0  0  0  0  0  0
    4.3079   -6.9615   -4.2970 H   0  0  0  0  0  0  0  0  0  0  0  0
    1.4551   -6.5975   -6.2332 H   0  0  0  0  0  0  0  0  0  0  0  0
   -2.8476   -5.8649   -9.9737 H   0  0  0  0  0  0  0  0  0  0  0  0
   -0.1547   -8.1142   -5.7141 H   0  0  0  0  0  0  0  0  0  0  0  0
    1.0204  -12.1706   -6.9031 H   0  0  0  0  0  0  0  0  0  0  0  0
   -1.1984  -10.5947  -10.2554 H   0  0  0  0  0  0  0  0  0  0  0  0
   -1.9666   -8.4864  -10.3221 H   0  0  0  0  0  0  0  0  0  0  0  0
  1  2  1  0  0  0  0
  2  3  1  0  0  0  0
  3  4  2  0  0  0  0
  4  5  1  0  0  0  0
  5  6  1  0  0  0  0
  6  7  2  0  0  0  0
  7  8  1  0  0  0  0
  8  9  2  0  0  0  0
  8 10  1  0  0  0  0
  7 11  1  0  0  0  0
 11 12  1  0  0  0  0
 11 13  2  0  0  0  0
  3 14  1  0  0  0  0
 14 15  1  0  0  0  0
 15 16  1  0  0  0  0
 16 17  2  0  0  0  0
 17 18  1  0  0  0  0
 18 19  1  0  0  0  0
 19 20  2  0  0  0  0
 20 21  1  0  0  0  0
 21 22  2  0  0  0  0
 21 23  1  0  0  0  0
 20 24  1  0  0  0  0
 24 25  1  0  0  0  0
 24 26  2  0  0  0  0
 16 27  1  0  0  0  0
 27 28  1  0  0  0  0
 28 29  1  0  0  0  0
 29 30  2  0  0  0  0
 30 31  1  0  0  0  0
 31 32  1  0  0  0  0
 32 33  2  0  0  0  0
 33 34  1  0  0  0  0
 34 35  2  0  0  0  0
 34 36  1  0  0  0  0
 33 37  1  0  0  0  0
 37 38  1  0  0  0  0
 37 39  2  0  0  0  0
 29 40  1  0  0  0  0
 40 41  1  0  0  0  0
 41 42  1  0  0  0  0
 42 43  2  0  0  0  0
 43 44  1  0  0  0  0
 44 45  1  0  0  0  0
 45 46  2  0  0  0  0
 46 47  1  0  0  0  0
 47 48  1  0  0  0  0
 46 49  1  0  0  0  0
 49 50  2  0  0  0  0
 42 51  1  0  0  0  0
 51 52  1  0  0  0  0
 52 53  1  0  0  0  0
 53 54  2  0  0  0  0
 54 55  1  0  0  0  0
 55 56  1  0  0  0  0
 56 57  2  0  0  0  0
 57 58  1  0  0  0  0
 58 59  2  0  0  0  0
 58 60  1  0  0  0  0
 57 61  1  0  0  0  0
 61 62  1  0  0  0  0
 61 63  2  0  0  0  0
 53 64  1  0  0  0  0
 64 65  1  0  0  0  0
 65 66  1  0  0  0  0
 66 67  2  0  0  0  0
 67 68  1  0  0  0  0
 68 69  1  0  0  0  0
 69 70  2  0  0  0  0
 70 71  1  0  0  0  0
 71 72  2  0  0  0  0
 71 73  1  0  0  0  0
 70 74  1  0  0  0  0
 74 75  1  0  0  0  0
 74 76  2  0  0  0  0
  5  1  2  0  0  0  0
 18 14  2  0  0  0  0
 31 27  2  0  0  0  0
 44 40  2  0  0  0  0
 55 51  2  0  0  0  0
 68 64  2  0  0  0  0
 13  4  1  0  0  0  0
 26 17  1  0  0  0  0
 39 30  1  0  0  0  0
 50 43  1  0  0  0  0
 63 54  1  0  0  0  0
 76 67  1  0  0  0  0
  1 77  1  0  0  0  0
  6 78  1  0  0  0  0
 10 79  1  0  0  0  0
 12 80  1  0  0  0  0
 13 81  1  0  0  0  0
 19 82  1  0  0  0  0
 23 83  1  0  0  0  0
 25 84  1  0  0  0  0
 26 85  1  0  0  0  0
 32 86  1  0  0  0  0
 36 87  1  0  0  0  0
 38 88  1  0  0  0  0
 39 89  1  0  0  0  0
 45 90  1  0  0  0  0
 48 91  1  0  0  0  0
 48 92  1  0  0  0  0
 48 93  1  0  0  0  0
 49 94  1  0  0  0  0
 50 95  1  0  0  0  0
 56 96  1  0  0  0  0
 60 97  1  0  0  0  0
 62 98  1  0  0  0  0
 63 99  1  0  0  0  0
 66100  1  0  0  0  0
 69101  1  0  0  0  0
 73102  1  0  0  0  0
 75103  1  0  0  0  0
 76104  1  0  0  0  0
M  END
