159

C         -0.42770        9.06060        9.03980
C          0.01740        8.00710        8.32760
C         -0.83220        6.86370        8.42820
C         -0.68160        5.61040        7.82580
C          0.49580        5.27430        6.96000
C          1.68410        4.82240        7.81080
C         -1.66080        4.67520        8.10480
C         -2.78090        4.92910        8.93540
C         -2.93750        6.18840        9.52730
C         -4.08580        6.50590       10.43790
C         -3.78710        6.04860       11.86690
C         -1.94920        7.11890        9.26030
S         -1.90540        8.75070        9.88570
C         -3.63120        3.79570        9.04050
C         -3.20900        2.71610        8.32060
S         -1.69600        3.04550        7.48540
C         -3.79680        1.42820        8.15220
S         -2.77850        0.11050        7.67960
C         -4.10140       -0.99530        7.56430
C         -5.29760       -0.37120        7.92050
C         -5.12940        1.01530        8.23950
C         -6.26080        1.80610        8.53550
C         -7.49990        1.22370        8.57610
O         -8.66460        1.87530        8.84050
C         -8.61760        3.25940        9.08300
C         -7.64930       -0.17100        8.34450
C         -6.58380       -0.94800        8.01810
C         -3.86230       -2.28500        7.00670
C         -4.68470       -3.04360        6.22300
C         -4.03370       -4.14510        5.60920
C         -4.54250       -5.01240        4.63200
C         -5.96880       -4.95170        4.17310
C         -6.14240       -3.91110        3.06460
C         -3.62540       -5.84570        4.02010
C         -2.25980       -5.92300        4.39420
C         -1.77450       -5.12980        5.44280
C         -0.33450       -5.15110        5.86080
C          0.49710       -4.19290        5.00510
C         -2.66930       -4.23010        5.98720
S         -2.24690       -2.96480        7.11220
C         -1.51070       -6.72080        3.49420
C         -2.24020       -7.19650        2.44160
S         -3.94200       -6.80730        2.59620
C         -1.71680       -7.67120        1.19900
C         -0.40040       -7.83770        0.87640
C         -0.15370       -7.85860       -0.51960
C          1.08750       -7.78250       -1.16610
C          2.38460       -7.87770       -0.41960
C          2.80580       -6.51170        0.12680
C          1.04980       -7.46540       -2.50990
C         -0.14860       -7.32800       -3.25490
C         -1.38760       -7.54190       -2.63430
C         -2.67610       -7.48030       -3.39680
C         -2.89110       -8.76590       -4.19730
C         -1.35350       -7.75630       -1.26970
S         -2.74850       -7.71930       -0.21790
C          0.09520       -6.79550       -4.54740
C          1.40320       -6.48780       -4.77740
S          2.44180       -6.99650       -3.45660
C          1.92140       -5.61870       -5.78270
C          3.15910       -5.04790       -5.81330
C          3.26200       -3.95130       -6.70720
C          4.33290       -3.06090       -6.85770
C          5.62670       -3.24060       -6.12190
C          5.54410       -2.63610       -4.71860
C          4.09340       -1.94730       -7.63990
C          2.87520       -1.71410       -8.32690
C          1.83370       -2.64760       -8.24200
C          0.51630       -2.43530       -8.92560
C         -0.40800       -1.56820       -8.06830
C          2.04810       -3.72460       -7.40390
S          0.83550       -4.90260       -6.96100
C          2.86700       -0.44800       -8.96750
C          4.00400        0.27590       -8.76920
S          5.19490       -0.60520       -7.83070
C          4.25550        1.62820       -9.14660
C          5.34180        2.39050       -8.84200
C          5.23810        3.73800       -9.27820
C          6.15500        4.78030       -9.09890
C          7.47460        4.57020       -8.41980
C          8.50680        4.00960       -9.39980
C          5.79060        6.01110       -9.61450
C          4.56530        6.25200      -10.28280
C          3.64880        5.21060      -10.46240
C          2.31630        5.42160      -11.11690
C          1.29170        5.93120      -10.10140
C          4.01260        3.97990       -9.94810
S          3.03310        2.53520      -10.01800
C          4.44980        7.61700      -10.68630
C          5.52130        8.36040      -10.34720
S          6.75000        7.46870       -9.51740
H          0.02040       10.03060        9.13560
H          0.92120        8.02890        7.74600
H          0.78010        6.14300        6.36370
H          0.21700        4.46820        6.27730
H          2.53350        4.58200        7.17600
H          1.97700        5.60730        8.50460
H          1.41900        3.93740        8.38440
H         -4.25560        7.58490       10.43490
H         -4.99350        6.01820       10.07740
H         -2.90180        6.55520       12.24370
H         -3.60680        4.97620       11.89490
H         -4.62380        6.28040       12.52170
H         -4.50090        3.77620        9.66990
H         -6.12810        2.86040        8.70260
H         -8.01760        3.49060        9.96940
H         -8.21810        3.80490        8.22160
H         -9.64800        3.56510        9.25670
H         -8.64250       -0.58210        8.42920
H         -6.70600       -2.00630        7.85230
H         -5.69970       -2.76550        6.00830
H         -6.61960       -4.70650        5.01400
H         -6.26030       -5.93230        3.78960
H         -5.52370       -4.16950        2.20850
H         -7.18020       -3.87280        2.74240
H         -5.84860       -2.92460        3.41620
H         -0.26400       -4.84570        6.90730
H          0.06220       -6.16400        5.77330
H          0.43080       -4.46260        3.95330
H          0.13270       -3.17510        5.12150
H          1.54050       -4.22360        5.30950
H         -0.44900       -6.86240        3.57610
H          0.38120       -7.85690        1.61330
H          3.15850       -8.24270       -1.09890
H          2.28750       -8.58990        0.40150
H          2.04470       -6.11440        0.79460
H          2.94430       -5.80790       -0.69040
H          3.74200       -6.59610        0.67350
H         -3.50180       -7.34880       -2.69420
H         -2.66760       -6.62560       -4.07610
H         -2.07920       -8.91410       -4.90580
H         -3.82840       -8.71640       -4.74610
H         -2.92540       -9.62380       -3.52950
H         -0.67920       -6.55780       -5.25490
H          3.94920       -5.36360       -5.15550
H          5.86900       -4.30220       -6.05110
H          6.42430       -2.74330       -6.67880
H          4.75210       -3.11090       -4.14380
H          5.33240       -1.57120       -4.78110
H          6.48620       -2.77200       -4.19330
H          0.04280       -3.40550       -9.09340
H          0.67320       -1.95870       -9.89460
H         -0.59220       -2.04970       -7.11070
H          0.04330       -0.59600       -7.88330
H         -1.36070       -1.42080       -8.57110
H          2.03320       -0.05990       -9.52510
H          6.18530        1.99400       -8.30510
H          7.35530        3.88250       -7.58070
H          7.83140        5.52630       -8.03020
H          8.17140        3.05680       -9.80300
H          8.65320        4.70090      -10.22660
H          9.46040        3.86080       -8.89920
H          2.41050        6.13770      -11.93480
H          1.96860        4.47270      -11.53170
H          1.61960        6.87410       -9.66920
H          0.32730        6.08290      -10.58010
H          1.16970        5.20910       -9.29730
H          3.59640        8.01580      -11.20430
H          5.68550        9.40460      -10.53080
