
  xtb     03022214193D
 energy: -343.432818209656 gnorm: 0.000451661775 xtb: 6.4.1 (unknown)
179199  0     0  0            999 V2000
   13.1635   -5.0625    9.1336 C   0  0  0  0  0  0  0  0  0  0  0  0
   12.1518   -4.5813    7.8456 S   0  0  0  0  0  0  0  0  0  0  0  0
   10.9936   -5.8301    8.1846 C   0  0  0  0  0  0  0  0  0  0  0  0
   11.3855   -6.5672    9.3020 C   0  0  0  0  0  0  0  0  0  0  0  0
   12.6439   -6.1284    9.8338 C   0  0  0  0  0  0  0  0  0  0  0  0
   13.2042   -6.7633   10.9694 C   0  0  0  0  0  0  0  0  0  0  0  0
   12.5083   -7.7715   11.5749 C   0  0  0  0  0  0  0  0  0  0  0  0
   12.9188   -8.4706   12.6680 O   0  0  0  0  0  0  0  0  0  0  0  0
   14.1651   -8.1509   13.2344 C   0  0  0  0  0  0  0  0  0  0  0  0
   11.2270   -8.1595   11.0852 C   0  0  0  0  0  0  0  0  0  0  0  0
   10.6756   -7.5803    9.9877 C   0  0  0  0  0  0  0  0  0  0  0  0
    9.8367   -5.9676    7.3673 C   0  0  0  0  0  0  0  0  0  0  0  0
    9.0270   -4.5626    6.7645 S   0  0  0  0  0  0  0  0  0  0  0  0
    7.8290   -5.4910    5.9284 C   0  0  0  0  0  0  0  0  0  0  0  0
    8.0439   -6.8612    6.1213 C   0  0  0  0  0  0  0  0  0  0  0  0
    9.2054   -7.1331    6.9137 C   0  0  0  0  0  0  0  0  0  0  0  0
    9.6323   -8.4600    7.0942 C   0  0  0  0  0  0  0  0  0  0  0  0
    8.8859   -9.4976    6.5868 C   0  0  0  0  0  0  0  0  0  0  0  0
    9.3787  -10.7500    6.7975 O   0  0  0  0  0  0  0  0  0  0  0  0
    8.6803  -11.8563    6.2804 C   0  0  0  0  0  0  0  0  0  0  0  0
    7.6735   -9.2296    5.9070 C   0  0  0  0  0  0  0  0  0  0  0  0
    7.2666   -7.9478    5.6729 C   0  0  0  0  0  0  0  0  0  0  0  0
    6.8405   -4.8230    5.1583 C   0  0  0  0  0  0  0  0  0  0  0  0
    6.0889   -5.2962    4.1177 C   0  0  0  0  0  0  0  0  0  0  0  0
    5.2021   -4.3404    3.5709 C   0  0  0  0  0  0  0  0  0  0  0  0
    4.2858   -4.5173    2.5171 C   0  0  0  0  0  0  0  0  0  0  0  0
    4.1201   -5.8094    1.8732 C   0  0  0  0  0  0  0  0  0  0  0  0
    3.7840   -7.2438    2.8014 S   0  0  0  0  0  0  0  0  0  0  0  0
    3.7085   -8.2399    1.3882 C   0  0  0  0  0  0  0  0  0  0  0  0
    3.3732   -9.6879    1.4756 C   0  0  0  0  0  0  0  0  0  0  0  0
    1.8600   -9.9020    1.3930 C   0  0  0  0  0  0  0  0  0  0  0  0
    3.9282   -7.4908    0.2718 C   0  0  0  0  0  0  0  0  0  0  0  0
    3.9377   -8.1312   -1.3199 Cl  0  0  0  0  0  0  0  0  0  0  0  0
    4.1664   -6.1160    0.5416 C   0  0  0  0  0  0  0  0  0  0  0  0
    4.5602   -4.9964   -0.6944 Cl  0  0  0  0  0  0  0  0  0  0  0  0
    3.5396   -3.4093    2.1361 C   0  0  0  0  0  0  0  0  0  0  0  0
    3.6856   -2.1425    2.7538 C   0  0  0  0  0  0  0  0  0  0  0  0
    4.5717   -1.9749    3.8342 C   0  0  0  0  0  0  0  0  0  0  0  0
    4.6615   -0.6986    4.5228 C   0  0  0  0  0  0  0  0  0  0  0  0
    6.1893    0.0876    4.7895 S   0  0  0  0  0  0  0  0  0  0  0  0
    5.4450    1.4482    5.5562 C   0  0  0  0  0  0  0  0  0  0  0  0
    6.2466    2.6150    6.0176 C   0  0  0  0  0  0  0  0  0  0  0  0
    6.3858    3.6581    4.9059 C   0  0  0  0  0  0  0  0  0  0  0  0
    4.0921    1.2878    5.5940 C   0  0  0  0  0  0  0  0  0  0  0  0
    3.6432    0.0696    5.0196 C   0  0  0  0  0  0  0  0  0  0  0  0
    1.9892   -0.3982    5.0430 Cl  0  0  0  0  0  0  0  0  0  0  0  0
    3.0129    2.4374    6.2696 Cl  0  0  0  0  0  0  0  0  0  0  0  0
    5.3226   -3.0789    4.2055 C   0  0  0  0  0  0  0  0  0  0  0  0
    6.4907   -3.1314    5.4929 S   0  0  0  0  0  0  0  0  0  0  0  0
    2.8543   -1.1672    2.1613 C   0  0  0  0  0  0  0  0  0  0  0  0
    2.0410   -1.6618    1.1814 C   0  0  0  0  0  0  0  0  0  0  0  0
    2.3029   -3.3695    0.9111 S   0  0  0  0  0  0  0  0  0  0  0  0
    1.0591   -0.9204    0.4603 C   0  0  0  0  0  0  0  0  0  0  0  0
    0.7826    0.4074    0.6260 C   0  0  0  0  0  0  0  0  0  0  0  0
   -0.2746    0.8732   -0.1851 C   0  0  0  0  0  0  0  0  0  0  0  0
   -0.7704    2.1880   -0.2764 C   0  0  0  0  0  0  0  0  0  0  0  0
   -0.2428    3.2386    0.5785 C   0  0  0  0  0  0  0  0  0  0  0  0
   -0.1487    3.0152    2.3035 S   0  0  0  0  0  0  0  0  0  0  0  0
    0.5454    4.5802    2.5524 C   0  0  0  0  0  0  0  0  0  0  0  0
    0.8729    5.0656    3.9211 C   0  0  0  0  0  0  0  0  0  0  0  0
   -0.3803    5.5668    4.6420 C   0  0  0  0  0  0  0  0  0  0  0  0
    0.6754    5.2312    1.3625 C   0  0  0  0  0  0  0  0  0  0  0  0
    1.3275    6.8105    1.2018 Cl  0  0  0  0  0  0  0  0  0  0  0  0
    0.2348    4.4749    0.2423 C   0  0  0  0  0  0  0  0  0  0  0  0
    0.3933    5.0494   -1.3644 Cl  0  0  0  0  0  0  0  0  0  0  0  0
   -1.7801    2.4110   -1.2000 C   0  0  0  0  0  0  0  0  0  0  0  0
   -2.3187    1.3837   -2.0167 C   0  0  0  0  0  0  0  0  0  0  0  0
   -1.8312    0.0665   -1.9135 C   0  0  0  0  0  0  0  0  0  0  0  0
   -2.3746   -1.0032   -2.7333 C   0  0  0  0  0  0  0  0  0  0  0  0
   -2.4681   -0.8561   -4.4651 S   0  0  0  0  0  0  0  0  0  0  0  0
   -3.1619   -2.4311   -4.6436 C   0  0  0  0  0  0  0  0  0  0  0  0
   -3.4781   -2.9881   -5.9875 C   0  0  0  0  0  0  0  0  0  0  0  0
   -2.2395   -3.6233   -6.6238 C   0  0  0  0  0  0  0  0  0  0  0  0
   -3.2968   -3.0270   -3.4257 C   0  0  0  0  0  0  0  0  0  0  0  0
   -2.8559   -2.2217   -2.3412 C   0  0  0  0  0  0  0  0  0  0  0  0
   -3.0137   -2.7191   -0.7089 Cl  0  0  0  0  0  0  0  0  0  0  0  0
   -3.9518   -4.5965   -3.1970 Cl  0  0  0  0  0  0  0  0  0  0  0  0
   -0.8092   -0.1556   -0.9999 C   0  0  0  0  0  0  0  0  0  0  0  0
    0.0192   -1.6635   -0.7322 S   0  0  0  0  0  0  0  0  0  0  0  0
   -3.3614    1.8606   -2.8375 C   0  0  0  0  0  0  0  0  0  0  0  0
   -3.6254    3.1991   -2.6924 C   0  0  0  0  0  0  0  0  0  0  0  0
   -2.5850    3.9269   -1.4847 S   0  0  0  0  0  0  0  0  0  0  0  0
   -4.5985    3.9246   -3.4250 C   0  0  0  0  0  0  0  0  0  0  0  0
   -5.6595    3.0373   -4.4666 S   0  0  0  0  0  0  0  0  0  0  0  0
   -6.4737    4.4572   -5.0204 C   0  0  0  0  0  0  0  0  0  0  0  0
   -5.9222    5.6028   -4.4312 C   0  0  0  0  0  0  0  0  0  0  0  0
   -4.8662    5.2998   -3.5093 C   0  0  0  0  0  0  0  0  0  0  0  0
   -4.2134    6.3418   -2.8348 C   0  0  0  0  0  0  0  0  0  0  0  0
   -4.5707    7.6511   -3.0683 C   0  0  0  0  0  0  0  0  0  0  0  0
   -3.8864    8.5905   -2.3654 O   0  0  0  0  0  0  0  0  0  0  0  0
   -4.1840    9.9514   -2.5635 C   0  0  0  0  0  0  0  0  0  0  0  0
   -5.5845    7.9492   -4.0084 C   0  0  0  0  0  0  0  0  0  0  0  0
   -6.2399    6.9532   -4.6735 C   0  0  0  0  0  0  0  0  0  0  0  0
   -7.5289    4.3035   -5.9599 C   0  0  0  0  0  0  0  0  0  0  0  0
   -8.5055    5.1771   -6.3526 C   0  0  0  0  0  0  0  0  0  0  0  0
   -9.3772    4.6547   -7.3380 C   0  0  0  0  0  0  0  0  0  0  0  0
  -10.4865    5.2820   -7.9309 C   0  0  0  0  0  0  0  0  0  0  0  0
  -10.8347    6.6570   -7.6156 C   0  0  0  0  0  0  0  0  0  0  0  0
   -9.6611    7.9351   -7.7598 S   0  0  0  0  0  0  0  0  0  0  0  0
  -10.8022    9.1475   -7.2864 C   0  0  0  0  0  0  0  0  0  0  0  0
  -10.4291   10.5884   -7.2504 C   0  0  0  0  0  0  0  0  0  0  0  0
  -10.6053   11.2333   -8.6272 C   0  0  0  0  0  0  0  0  0  0  0  0
  -12.0160    8.5807   -7.0386 C   0  0  0  0  0  0  0  0  0  0  0  0
  -13.3995    9.4651   -6.5412 Cl  0  0  0  0  0  0  0  0  0  0  0  0
  -12.0379    7.1709   -7.2193 C   0  0  0  0  0  0  0  0  0  0  0  0
  -13.4259    6.2262   -6.8774 Cl  0  0  0  0  0  0  0  0  0  0  0  0
  -11.2171    4.5357   -8.8499 C   0  0  0  0  0  0  0  0  0  0  0  0
  -10.8990    3.1976   -9.1827 C   0  0  0  0  0  0  0  0  0  0  0  0
   -9.7932    2.5698   -8.5879 C   0  0  0  0  0  0  0  0  0  0  0  0
   -9.4430    1.1888   -8.8813 C   0  0  0  0  0  0  0  0  0  0  0  0
  -10.5991   -0.0929   -8.6662 S   0  0  0  0  0  0  0  0  0  0  0  0
   -9.4512   -1.3108   -9.1068 C   0  0  0  0  0  0  0  0  0  0  0  0
   -9.8057   -2.7564   -9.0731 C   0  0  0  0  0  0  0  0  0  0  0  0
   -9.5988   -3.3357   -7.6714 C   0  0  0  0  0  0  0  0  0  0  0  0
   -8.2479   -0.7415   -9.3971 C   0  0  0  0  0  0  0  0  0  0  0  0
   -8.2395    0.6744   -9.2758 C   0  0  0  0  0  0  0  0  0  0  0  0
   -6.8675    1.6205   -9.6746 Cl  0  0  0  0  0  0  0  0  0  0  0  0
   -6.8600   -1.6315   -9.8718 Cl  0  0  0  0  0  0  0  0  0  0  0  0
   -9.0538    3.3192   -7.6829 C   0  0  0  0  0  0  0  0  0  0  0  0
   -7.6757    2.7588   -6.7871 S   0  0  0  0  0  0  0  0  0  0  0  0
  -11.7755    2.6808  -10.1803 C   0  0  0  0  0  0  0  0  0  0  0  0
  -12.6962    3.5798  -10.5842 C   0  0  0  0  0  0  0  0  0  0  0  0
  -12.5712    5.1063   -9.7830 S   0  0  0  0  0  0  0  0  0  0  0  0
   14.0810   -4.5388    9.3126 H   0  0  0  0  0  0  0  0  0  0  0  0
   14.1608   -6.4187   11.3277 H   0  0  0  0  0  0  0  0  0  0  0  0
   14.9810   -8.3054   12.5208 H   0  0  0  0  0  0  0  0  0  0  0  0
   14.1886   -7.1165   13.5927 H   0  0  0  0  0  0  0  0  0  0  0  0
   14.2901   -8.8278   14.0780 H   0  0  0  0  0  0  0  0  0  0  0  0
   10.7088   -8.9317   11.6311 H   0  0  0  0  0  0  0  0  0  0  0  0
    9.6950   -7.8703    9.6454 H   0  0  0  0  0  0  0  0  0  0  0  0
   10.5490   -8.6776    7.6162 H   0  0  0  0  0  0  0  0  0  0  0  0
    7.6878  -11.9564    6.7322 H   0  0  0  0  0  0  0  0  0  0  0  0
    8.5824  -11.8001    5.1914 H   0  0  0  0  0  0  0  0  0  0  0  0
    9.2798  -12.7271    6.5413 H   0  0  0  0  0  0  0  0  0  0  0  0
    7.0585  -10.0443    5.5591 H   0  0  0  0  0  0  0  0  0  0  0  0
    6.3346   -7.7684    5.1624 H   0  0  0  0  0  0  0  0  0  0  0  0
    6.2034   -6.2820    3.7106 H   0  0  0  0  0  0  0  0  0  0  0  0
    3.8606  -10.2112    0.6505 H   0  0  0  0  0  0  0  0  0  0  0  0
    3.7479  -10.0909    2.4180 H   0  0  0  0  0  0  0  0  0  0  0  0
    1.4761   -9.5119    0.4541 H   0  0  0  0  0  0  0  0  0  0  0  0
    1.3612   -9.3892    2.2119 H   0  0  0  0  0  0  0  0  0  0  0  0
    1.6283  -10.9621    1.4510 H   0  0  0  0  0  0  0  0  0  0  0  0
    7.2364    2.2736    6.3237 H   0  0  0  0  0  0  0  0  0  0  0  0
    5.7488    3.0660    6.8786 H   0  0  0  0  0  0  0  0  0  0  0  0
    6.9704    4.5033    5.2588 H   0  0  0  0  0  0  0  0  0  0  0  0
    5.4060    4.0156    4.5995 H   0  0  0  0  0  0  0  0  0  0  0  0
    6.8841    3.2245    4.0423 H   0  0  0  0  0  0  0  0  0  0  0  0
    2.8659   -0.1330    2.4464 H   0  0  0  0  0  0  0  0  0  0  0  0
    1.3252    1.0360    1.3054 H   0  0  0  0  0  0  0  0  0  0  0  0
    1.3193    4.2526    4.4971 H   0  0  0  0  0  0  0  0  0  0  0  0
    1.5991    5.8763    3.8390 H   0  0  0  0  0  0  0  0  0  0  0  0
   -1.1087    4.7643    4.7322 H   0  0  0  0  0  0  0  0  0  0  0  0
   -0.1222    5.9174    5.6376 H   0  0  0  0  0  0  0  0  0  0  0  0
   -0.8319    6.3865    4.0885 H   0  0  0  0  0  0  0  0  0  0  0  0
   -4.2601   -3.7419   -5.8777 H   0  0  0  0  0  0  0  0  0  0  0  0
   -3.8488   -2.1897   -6.6328 H   0  0  0  0  0  0  0  0  0  0  0  0
   -1.8664   -4.4304   -5.9983 H   0  0  0  0  0  0  0  0  0  0  0  0
   -2.4877   -4.0259   -7.6021 H   0  0  0  0  0  0  0  0  0  0  0  0
   -1.4529   -2.8815   -6.7402 H   0  0  0  0  0  0  0  0  0  0  0  0
   -3.9058    1.2424   -3.5281 H   0  0  0  0  0  0  0  0  0  0  0  0
   -3.4205    6.1433   -2.1344 H   0  0  0  0  0  0  0  0  0  0  0  0
   -3.5177   10.4949   -1.8955 H   0  0  0  0  0  0  0  0  0  0  0  0
   -3.9896   10.2622   -3.5951 H   0  0  0  0  0  0  0  0  0  0  0  0
   -5.2219   10.1811   -2.3011 H   0  0  0  0  0  0  0  0  0  0  0  0
   -5.8431    8.9750   -4.2174 H   0  0  0  0  0  0  0  0  0  0  0  0
   -6.9851    7.2080   -5.4081 H   0  0  0  0  0  0  0  0  0  0  0  0
   -8.6392    6.1509   -5.9238 H   0  0  0  0  0  0  0  0  0  0  0  0
   -9.3891   10.6859   -6.9341 H   0  0  0  0  0  0  0  0  0  0  0  0
  -11.0667   11.0971   -6.5247 H   0  0  0  0  0  0  0  0  0  0  0  0
  -10.3340   12.2847   -8.5846 H   0  0  0  0  0  0  0  0  0  0  0  0
   -9.9723   10.7380   -9.3597 H   0  0  0  0  0  0  0  0  0  0  0  0
  -11.6398   11.1529   -8.9506 H   0  0  0  0  0  0  0  0  0  0  0  0
   -9.1733   -3.2893   -9.7857 H   0  0  0  0  0  0  0  0  0  0  0  0
  -10.8491   -2.8812   -9.3677 H   0  0  0  0  0  0  0  0  0  0  0  0
  -10.2248   -2.8141   -6.9514 H   0  0  0  0  0  0  0  0  0  0  0  0
   -9.8591   -4.3906   -7.6615 H   0  0  0  0  0  0  0  0  0  0  0  0
   -8.5599   -3.2294   -7.3697 H   0  0  0  0  0  0  0  0  0  0  0  0
  -11.7016    1.6840  -10.5744 H   0  0  0  0  0  0  0  0  0  0  0  0
  -13.4659    3.4499  -11.3196 H   0  0  0  0  0  0  0  0  0  0  0  0
  1  2  1  0  0  0  0
  2  3  1  0  0  0  0
  3  4  2  0  0  0  0
  4  5  1  0  0  0  0
  5  6  1  0  0  0  0
  6  7  2  0  0  0  0
  7  8  1  0  0  0  0
  8  9  1  0  0  0  0
  7 10  1  0  0  0  0
 10 11  2  0  0  0  0
  3 12  1  0  0  0  0
 12 13  1  0  0  0  0
 13 14  1  0  0  0  0
 14 15  2  0  0  0  0
 15 16  1  0  0  0  0
 16 17  1  0  0  0  0
 17 18  2  0  0  0  0
 18 19  1  0  0  0  0
 19 20  1  0  0  0  0
 18 21  1  0  0  0  0
 21 22  2  0  0  0  0
 14 23  1  0  0  0  0
 23 24  2  0  0  0  0
 24 25  1  0  0  0  0
 25 26  2  0  0  0  0
 26 27  1  0  0  0  0
 27 28  1  0  0  0  0
 28 29  1  0  0  0  0
 29 30  1  0  0  0  0
 30 31  1  0  0  0  0
 29 32  2  0  0  0  0
 32 33  1  0  0  0  0
 32 34  1  0  0  0  0
 34 35  1  0  0  0  0
 26 36  1  0  0  0  0
 36 37  2  0  0  0  0
 37 38  1  0  0  0  0
 38 39  1  0  0  0  0
 39 40  1  0  0  0  0
 40 41  1  0  0  0  0
 41 42  1  0  0  0  0
 42 43  1  0  0  0  0
 41 44  2  0  0  0  0
 44 45  1  0  0  0  0
 45 46  1  0  0  0  0
 44 47  1  0  0  0  0
 38 48  2  0  0  0  0
 48 49  1  0  0  0  0
 37 50  1  0  0  0  0
 50 51  2  0  0  0  0
 51 52  1  0  0  0  0
 51 53  1  0  0  0  0
 53 54  2  0  0  0  0
 54 55  1  0  0  0  0
 55 56  2  0  0  0  0
 56 57  1  0  0  0  0
 57 58  1  0  0  0  0
 58 59  1  0  0  0  0
 59 60  1  0  0  0  0
 60 61  1  0  0  0  0
 59 62  2  0  0  0  0
 62 63  1  0  0  0  0
 62 64  1  0  0  0  0
 64 65  1  0  0  0  0
 56 66  1  0  0  0  0
 66 67  2  0  0  0  0
 67 68  1  0  0  0  0
 68 69  1  0  0  0  0
 69 70  1  0  0  0  0
 70 71  1  0  0  0  0
 71 72  1  0  0  0  0
 72 73  1  0  0  0  0
 71 74  2  0  0  0  0
 74 75  1  0  0  0  0
 75 76  1  0  0  0  0
 74 77  1  0  0  0  0
 68 78  2  0  0  0  0
 78 79  1  0  0  0  0
 67 80  1  0  0  0  0
 80 81  2  0  0  0  0
 81 82  1  0  0  0  0
 81 83  1  0  0  0  0
 83 84  1  0  0  0  0
 84 85  1  0  0  0  0
 85 86  2  0  0  0  0
 86 87  1  0  0  0  0
 87 88  1  0  0  0  0
 88 89  2  0  0  0  0
 89 90  1  0  0  0  0
 90 91  1  0  0  0  0
 89 92  1  0  0  0  0
 92 93  2  0  0  0  0
 85 94  1  0  0  0  0
 94 95  2  0  0  0  0
 95 96  1  0  0  0  0
 96 97  2  0  0  0  0
 97 98  1  0  0  0  0
 98 99  1  0  0  0  0
 99100  1  0  0  0  0
100101  1  0  0  0  0
101102  1  0  0  0  0
100103  2  0  0  0  0
103104  1  0  0  0  0
103105  1  0  0  0  0
105106  1  0  0  0  0
 97107  1  0  0  0  0
107108  2  0  0  0  0
108109  1  0  0  0  0
109110  1  0  0  0  0
110111  1  0  0  0  0
111112  1  0  0  0  0
112113  1  0  0  0  0
113114  1  0  0  0  0
112115  2  0  0  0  0
115116  1  0  0  0  0
116117  1  0  0  0  0
115118  1  0  0  0  0
109119  2  0  0  0  0
119120  1  0  0  0  0
108121  1  0  0  0  0
121122  2  0  0  0  0
122123  1  0  0  0  0
  5  1  2  0  0  0  0
 16 12  2  0  0  0  0
 49 23  1  0  0  0  0
 79 53  1  0  0  0  0
 87 83  2  0  0  0  0
120 94  1  0  0  0  0
 11  4  1  0  0  0  0
 22 15  1  0  0  0  0
 48 25  1  0  0  0  0
 78 55  1  0  0  0  0
 93 86  1  0  0  0  0
119 96  1  0  0  0  0
 34 27  2  0  0  0  0
 52 36  1  0  0  0  0
 64 57  2  0  0  0  0
 82 66  1  0  0  0  0
105 98  2  0  0  0  0
123107  1  0  0  0  0
 45 39  2  0  0  0  0
 75 69  2  0  0  0  0
116110  2  0  0  0  0
  1124  1  0  0  0  0
  6125  1  0  0  0  0
  9126  1  0  0  0  0
  9127  1  0  0  0  0
  9128  1  0  0  0  0
 10129  1  0  0  0  0
 11130  1  0  0  0  0
 17131  1  0  0  0  0
 20132  1  0  0  0  0
 20133  1  0  0  0  0
 20134  1  0  0  0  0
 21135  1  0  0  0  0
 22136  1  0  0  0  0
 24137  1  0  0  0  0
 30138  1  0  0  0  0
 30139  1  0  0  0  0
 31140  1  0  0  0  0
 31141  1  0  0  0  0
 31142  1  0  0  0  0
 42143  1  0  0  0  0
 42144  1  0  0  0  0
 43145  1  0  0  0  0
 43146  1  0  0  0  0
 43147  1  0  0  0  0
 50148  1  0  0  0  0
 54149  1  0  0  0  0
 60150  1  0  0  0  0
 60151  1  0  0  0  0
 61152  1  0  0  0  0
 61153  1  0  0  0  0
 61154  1  0  0  0  0
 72155  1  0  0  0  0
 72156  1  0  0  0  0
 73157  1  0  0  0  0
 73158  1  0  0  0  0
 73159  1  0  0  0  0
 80160  1  0  0  0  0
 88161  1  0  0  0  0
 91162  1  0  0  0  0
 91163  1  0  0  0  0
 91164  1  0  0  0  0
 92165  1  0  0  0  0
 93166  1  0  0  0  0
 95167  1  0  0  0  0
101168  1  0  0  0  0
101169  1  0  0  0  0
102170  1  0  0  0  0
102171  1  0  0  0  0
102172  1  0  0  0  0
113173  1  0  0  0  0
113174  1  0  0  0  0
114175  1  0  0  0  0
114176  1  0  0  0  0
114177  1  0  0  0  0
121178  1  0  0  0  0
122179  1  0  0  0  0
M  END
