134

C         -0.19910        0.12590       11.70220
C          0.75130        0.41470       10.75460
C          0.45120       -0.15920        9.48540
S          1.65700        0.20800        8.29240
C          2.56720        1.12760        9.47510
C          3.82350        1.76400        9.06380
O          4.53920        2.41930        9.77630
O          4.06490        1.50790        7.77260
C          5.26300        2.05930        7.22640
C          5.46390        1.48000        5.83920
C          1.97370        1.14520       10.70350
F          2.46570        1.77320       11.76710
C         -0.72300       -0.88630        9.45340
S         -1.45250       -0.84150       11.04820
C         -1.28800       -1.56730        8.35480
C         -2.44530       -2.28170        8.39420
C         -2.99960       -2.95680        7.29240
S         -2.26290       -2.90680        5.73150
C         -3.47760       -3.91680        5.00580
C         -4.43900       -4.29340        5.97400
C         -4.16770       -3.74890        7.26380
C         -5.01980       -4.02340        8.33770
C         -6.12400       -4.83230        8.15500
O         -6.90100       -5.03660        9.24880
C         -8.04740       -5.84700        9.13570
C         -6.37400       -5.39580        6.88670
C         -5.55170       -5.13430        5.82290
C         -3.44420       -4.18660        3.62870
C         -2.40130       -4.00540        2.70130
C         -2.79580       -4.25380        1.35700
S         -1.48070       -4.11890        0.23610
C         -0.38980       -3.74130        1.53990
C          1.00360       -3.47850        1.17530
O          1.38910       -3.48960        0.02990
O          1.76490       -3.21430        2.23830
C          3.14430       -2.94490        1.98910
C          3.94390       -4.22980        1.83000
C         -1.01350       -3.72150        2.75890
F         -0.34300       -3.49240        3.88960
C         -4.10970       -4.65780        1.19020
S         -4.86660       -4.73590        2.77020
C         -4.82070       -5.14380        0.06980
C         -4.60570       -4.88270       -1.25150
C         -3.88130       -3.82360       -1.83320
C         -3.42360       -3.76210       -3.15620
C         -2.79050       -2.53990       -3.48390
S         -2.20320       -2.53000       -5.11530
C         -2.80070       -4.15210       -5.36930
C         -2.59010       -4.77470       -6.67650
O         -2.97090       -5.86810       -7.00810
O         -1.90130       -3.93790       -7.46670
C         -1.60410       -4.39890       -8.78360
C         -0.77740       -3.33520       -9.48110
C         -3.40980       -4.65880       -4.25360
F         -3.94940       -5.87450       -4.19130
C         -2.77830       -1.60490       -2.45650
S         -3.56110       -2.29810       -1.05380
C         -2.25850       -0.29670       -2.41080
C         -1.53670        0.23370       -3.43850
C         -0.96810        1.51430       -3.54550
C         -1.02940        2.69330       -2.78800
C         -0.24740        3.73440       -3.35170
S         -0.31980        5.20740       -2.44120
C         -1.40760        4.45720       -1.30250
C         -1.88640        5.28900       -0.19620
O         -1.54950        6.43940       -0.04830
O         -2.71560        4.62440        0.61220
C         -3.26130        5.35550        1.70990
C         -4.45750        6.19270        1.28100
C         -1.68110        3.15280       -1.61600
F         -2.49410        2.39280       -0.87920
C          0.43010        3.42400       -4.52710
S          0.05880        1.76990       -4.93440
C          1.31000        4.31460       -5.17690
C          2.08110        4.23410       -6.29940
C          2.21990        3.26880       -7.32020
C          3.20950        3.31560       -8.31320
C          3.12100        2.26230       -9.26350
S          4.38120        2.34280      -10.45720
C          5.03330        3.77400       -9.69540
C          6.23180        4.36200      -10.29630
O          6.76870        3.90290      -11.27620
O          6.63800        5.45200       -9.64050
C          7.81760        6.09040      -10.12660
C          9.07340        5.40550       -9.60700
C          4.31480        4.15530       -8.59520
F          4.62390        5.21900       -7.84860
C          2.07170        1.39490       -9.04900
S          1.18990        1.90110       -7.63310
C          1.64880        0.22680       -9.76150
C          2.24570       -0.25780      -10.85030
H         -0.22720        0.42500       12.73010
H          5.16390        3.15030        7.19290
H          6.09880        1.81440        7.89140
H          6.36550        1.89480        5.39850
H          4.61350        1.72150        5.20750
H          5.55860        0.39880        5.89500
H         -0.72820       -1.49820        7.43040
H         -2.98490       -2.34770        9.32940
H         -4.83230       -3.61610        9.31730
H         -7.78990       -6.87350        8.85660
H         -8.50140       -5.84850       10.12520
H         -8.76010       -5.43800        8.41280
H         -7.22000       -6.04780        6.74080
H         -5.76230       -5.59200        4.87060
H          3.47760       -2.37630        2.85930
H          3.22750       -2.33300        1.08460
H          3.60420       -4.77230        0.95110
H          4.99650       -3.99010        1.70980
H          3.81950       -4.86040        2.70690
H         -5.60630       -5.84910        0.30930
H         -5.08300       -5.54370       -1.96390
H         -2.54530       -4.58690       -9.31290
H         -1.06020       -5.34770       -8.71150
H          0.14560       -3.16090       -8.93430
H         -0.53880       -3.66190      -10.48900
H         -1.33470       -2.40350       -9.53050
H         -2.44720        0.26210       -1.50890
H         -1.33400       -0.40150       -4.29090
H         -2.48070        5.99830        2.13040
H         -3.55120        4.59310        2.43540
H         -4.14300        6.95360        0.57070
H         -5.20990        5.56100        0.81480
H         -4.89000        6.68040        2.14980
H          1.40320        5.24270       -4.62260
H          2.73300        5.08530       -6.45230
H          7.74860        7.11780       -9.76420
H          7.80320        6.07550      -11.22160
H          9.05980        5.37220       -8.52020
H          9.95030        5.95540       -9.93600
H          9.12940        4.39010       -9.99240
H          0.78080       -0.26770       -9.34630
H          1.88030       -1.14540      -11.33490
H          3.11170        0.21340      -11.28180
