89

C         -2.09970        0.35310        9.55200
S         -3.69220        0.63880        8.95300
C         -3.09070        1.62900        7.63920
C         -1.72550        1.71430        7.71200
C         -1.16840        0.98400        8.79700
S          0.57740        1.01980        8.96090
C          0.74040        2.52760        7.94910
S         -0.60340        2.61590        6.71600
C         -3.99950        2.29440        6.75010
C         -3.80590        2.51110        5.43490
C         -2.81040        1.92980        4.59330
S         -2.04150        0.38520        4.90050
C         -1.16740        0.43090        3.38540
C         -1.48530        1.58250        2.70020
C         -2.41500        2.40400        3.36450
S         -2.92380        3.86290        2.54080
C         -1.55800        3.80600        1.33130
S         -0.93470        2.10190        1.12290
C         -0.28920       -0.59120        2.95880
C         -0.03670       -1.73770        3.63320
C          0.81560       -2.75260        3.14010
S          1.69810       -2.56110        1.63850
C          2.33310       -4.19020        1.69880
C          1.90070       -4.79800        2.86150
C          1.05360       -4.00550        3.65890
S          0.46860       -4.70160        5.15400
C          0.93240       -6.40370        4.68450
S          2.28180       -6.40090        3.45640
C          3.26100       -4.76320        0.78730
C          3.70210       -4.33050       -0.42100
C          3.23180       -3.26780       -1.24100
S          1.57750       -2.77030       -1.29460
C          1.87150       -1.55230       -2.48770
C          3.21620       -1.54610       -2.86570
C          3.98050       -2.54200       -2.17940
C          5.36440       -2.66260       -2.41880
C          5.97120       -1.81060       -3.30550
O          7.29060       -1.82400       -3.63300
C          8.11920       -2.79540       -3.04360
C          5.21730       -0.79590       -3.95340
C          3.88210       -0.65880       -3.73920
C          0.77550       -0.70960       -2.82670
S         -0.42590       -0.40100       -1.58310
C         -1.40510        0.57760       -2.65220
C         -0.80310        0.65140       -3.88860
C          0.41250       -0.07020       -3.98650
S          1.14530       -0.13240       -5.58010
C          0.30750        1.38240       -6.14180
S         -1.30330        1.55560       -5.30100
C         -2.57230        1.21260       -2.13790
C         -3.67490        1.59140       -2.82090
C         -4.05180        1.19980       -4.13830
S         -5.09820        2.23610       -5.08290
C         -5.17300        1.09790       -6.40650
C         -4.44110       -0.01960       -6.09880
C         -3.81090        0.03450       -4.83130
S         -2.92480       -1.38650       -4.32370
C         -3.67080       -2.46140       -5.59470
S         -4.18410       -1.47600       -7.03730
C         -5.93210        1.43100       -7.57790
C         -5.94550        0.73220       -8.71070
H         -1.95020       -0.26630       10.41180
H          1.69400        2.50440        7.42760
H          0.68280        3.40080        8.60000
H         -4.90250        2.67210        7.21040
H         -4.49110        3.16870        4.91330
H         -1.91900        4.16990        0.37180
H         -0.74450        4.43550        1.69350
H          0.18890       -0.41850        2.00140
H         -0.51920       -1.93100        4.58320
H          1.26360       -6.93770        5.57200
H          0.06310       -6.89710        4.24790
H          3.71170       -5.66990        1.17620
H          4.54180       -4.87310       -0.83930
H          5.91910       -3.41920       -1.88870
H          7.78960       -3.80880       -3.29480
H          9.11250       -2.62680       -3.45620
H          8.15550       -2.68490       -1.95490
H          5.74960       -0.13440       -4.61790
H          3.33040        0.12720       -4.22540
H          0.13800        1.31820       -7.21380
H          0.92800        2.24780       -5.90570
H         -2.53260        1.42480       -1.07790
H         -4.38710        2.23480       -2.32040
H         -4.54570       -2.95810       -5.17330
H         -2.93310       -3.19570       -5.90930
H         -6.51880        2.33570       -7.48740
H         -5.35740       -0.16030       -8.83940
H         -6.55090        1.03770       -9.54550
