
  xtb     03022207443D
 energy: -263.092733187650 gnorm: 0.000682602945 xtb: 6.4.1 (unknown)
134145  0     0  0            999 V2000
   -0.1991    0.1259   11.7022 C   0  0  0  0  0  0  0  0  0  0  0  0
    0.7513    0.4147   10.7546 C   0  0  0  0  0  0  0  0  0  0  0  0
    0.4512   -0.1592    9.4854 C   0  0  0  0  0  0  0  0  0  0  0  0
    1.6570    0.2080    8.2924 S   0  0  0  0  0  0  0  0  0  0  0  0
    2.5672    1.1276    9.4751 C   0  0  0  0  0  0  0  0  0  0  0  0
    3.8235    1.7640    9.0638 C   0  0  0  0  0  0  0  0  0  0  0  0
    4.5392    2.4193    9.7763 O   0  0  0  0  0  0  0  0  0  0  0  0
    4.0649    1.5079    7.7726 O   0  0  0  0  0  0  0  0  0  0  0  0
    5.2630    2.0593    7.2264 C   0  0  0  0  0  0  0  0  0  0  0  0
    5.4639    1.4800    5.8392 C   0  0  0  0  0  0  0  0  0  0  0  0
    1.9737    1.1452   10.7035 C   0  0  0  0  0  0  0  0  0  0  0  0
    2.4657    1.7732   11.7671 F   0  0  0  0  0  0  0  0  0  0  0  0
   -0.7230   -0.8863    9.4534 C   0  0  0  0  0  0  0  0  0  0  0  0
   -1.4525   -0.8415   11.0482 S   0  0  0  0  0  0  0  0  0  0  0  0
   -1.2880   -1.5673    8.3548 C   0  0  0  0  0  0  0  0  0  0  0  0
   -2.4453   -2.2817    8.3942 C   0  0  0  0  0  0  0  0  0  0  0  0
   -2.9996   -2.9568    7.2924 C   0  0  0  0  0  0  0  0  0  0  0  0
   -2.2629   -2.9068    5.7315 S   0  0  0  0  0  0  0  0  0  0  0  0
   -3.4776   -3.9168    5.0058 C   0  0  0  0  0  0  0  0  0  0  0  0
   -4.4390   -4.2934    5.9740 C   0  0  0  0  0  0  0  0  0  0  0  0
   -4.1677   -3.7489    7.2638 C   0  0  0  0  0  0  0  0  0  0  0  0
   -5.0198   -4.0234    8.3377 C   0  0  0  0  0  0  0  0  0  0  0  0
   -6.1240   -4.8323    8.1550 C   0  0  0  0  0  0  0  0  0  0  0  0
   -6.9010   -5.0366    9.2488 O   0  0  0  0  0  0  0  0  0  0  0  0
   -8.0474   -5.8470    9.1357 C   0  0  0  0  0  0  0  0  0  0  0  0
   -6.3740   -5.3958    6.8867 C   0  0  0  0  0  0  0  0  0  0  0  0
   -5.5517   -5.1343    5.8229 C   0  0  0  0  0  0  0  0  0  0  0  0
   -3.4442   -4.1866    3.6287 C   0  0  0  0  0  0  0  0  0  0  0  0
   -2.4013   -4.0054    2.7013 C   0  0  0  0  0  0  0  0  0  0  0  0
   -2.7958   -4.2538    1.3570 C   0  0  0  0  0  0  0  0  0  0  0  0
   -1.4807   -4.1189    0.2361 S   0  0  0  0  0  0  0  0  0  0  0  0
   -0.3898   -3.7413    1.5399 C   0  0  0  0  0  0  0  0  0  0  0  0
    1.0036   -3.4785    1.1753 C   0  0  0  0  0  0  0  0  0  0  0  0
    1.3891   -3.4896    0.0299 O   0  0  0  0  0  0  0  0  0  0  0  0
    1.7649   -3.2143    2.2383 O   0  0  0  0  0  0  0  0  0  0  0  0
    3.1443   -2.9449    1.9891 C   0  0  0  0  0  0  0  0  0  0  0  0
    3.9439   -4.2298    1.8300 C   0  0  0  0  0  0  0  0  0  0  0  0
   -1.0135   -3.7215    2.7589 C   0  0  0  0  0  0  0  0  0  0  0  0
   -0.3430   -3.4924    3.8896 F   0  0  0  0  0  0  0  0  0  0  0  0
   -4.1097   -4.6578    1.1902 C   0  0  0  0  0  0  0  0  0  0  0  0
   -4.8666   -4.7359    2.7702 S   0  0  0  0  0  0  0  0  0  0  0  0
   -4.8207   -5.1438    0.0698 C   0  0  0  0  0  0  0  0  0  0  0  0
   -4.6057   -4.8827   -1.2515 C   0  0  0  0  0  0  0  0  0  0  0  0
   -3.8813   -3.8236   -1.8332 C   0  0  0  0  0  0  0  0  0  0  0  0
   -3.4236   -3.7621   -3.1562 C   0  0  0  0  0  0  0  0  0  0  0  0
   -2.7905   -2.5399   -3.4839 C   0  0  0  0  0  0  0  0  0  0  0  0
   -2.2032   -2.5300   -5.1153 S   0  0  0  0  0  0  0  0  0  0  0  0
   -2.8007   -4.1521   -5.3693 C   0  0  0  0  0  0  0  0  0  0  0  0
   -2.5901   -4.7747   -6.6765 C   0  0  0  0  0  0  0  0  0  0  0  0
   -2.9709   -5.8681   -7.0081 O   0  0  0  0  0  0  0  0  0  0  0  0
   -1.9013   -3.9379   -7.4667 O   0  0  0  0  0  0  0  0  0  0  0  0
   -1.6041   -4.3989   -8.7836 C   0  0  0  0  0  0  0  0  0  0  0  0
   -0.7774   -3.3352   -9.4811 C   0  0  0  0  0  0  0  0  0  0  0  0
   -3.4098   -4.6588   -4.2536 C   0  0  0  0  0  0  0  0  0  0  0  0
   -3.9494   -5.8745   -4.1913 F   0  0  0  0  0  0  0  0  0  0  0  0
   -2.7783   -1.6049   -2.4565 C   0  0  0  0  0  0  0  0  0  0  0  0
   -3.5611   -2.2981   -1.0538 S   0  0  0  0  0  0  0  0  0  0  0  0
   -2.2585   -0.2967   -2.4108 C   0  0  0  0  0  0  0  0  0  0  0  0
   -1.5367    0.2337   -3.4385 C   0  0  0  0  0  0  0  0  0  0  0  0
   -0.9681    1.5143   -3.5455 C   0  0  0  0  0  0  0  0  0  0  0  0
   -1.0294    2.6933   -2.7880 C   0  0  0  0  0  0  0  0  0  0  0  0
   -0.2474    3.7344   -3.3517 C   0  0  0  0  0  0  0  0  0  0  0  0
   -0.3198    5.2074   -2.4412 S   0  0  0  0  0  0  0  0  0  0  0  0
   -1.4076    4.4572   -1.3025 C   0  0  0  0  0  0  0  0  0  0  0  0
   -1.8864    5.2890   -0.1962 C   0  0  0  0  0  0  0  0  0  0  0  0
   -1.5495    6.4394   -0.0483 O   0  0  0  0  0  0  0  0  0  0  0  0
   -2.7156    4.6244    0.6122 O   0  0  0  0  0  0  0  0  0  0  0  0
   -3.2613    5.3555    1.7099 C   0  0  0  0  0  0  0  0  0  0  0  0
   -4.4575    6.1927    1.2810 C   0  0  0  0  0  0  0  0  0  0  0  0
   -1.6811    3.1528   -1.6160 C   0  0  0  0  0  0  0  0  0  0  0  0
   -2.4941    2.3928   -0.8792 F   0  0  0  0  0  0  0  0  0  0  0  0
    0.4301    3.4240   -4.5271 C   0  0  0  0  0  0  0  0  0  0  0  0
    0.0588    1.7699   -4.9344 S   0  0  0  0  0  0  0  0  0  0  0  0
    1.3100    4.3146   -5.1769 C   0  0  0  0  0  0  0  0  0  0  0  0
    2.0811    4.2341   -6.2994 C   0  0  0  0  0  0  0  0  0  0  0  0
    2.2199    3.2688   -7.3202 C   0  0  0  0  0  0  0  0  0  0  0  0
    3.2095    3.3156   -8.3132 C   0  0  0  0  0  0  0  0  0  0  0  0
    3.1210    2.2623   -9.2635 C   0  0  0  0  0  0  0  0  0  0  0  0
    4.3812    2.3428  -10.4572 S   0  0  0  0  0  0  0  0  0  0  0  0
    5.0333    3.7740   -9.6954 C   0  0  0  0  0  0  0  0  0  0  0  0
    6.2318    4.3620  -10.2963 C   0  0  0  0  0  0  0  0  0  0  0  0
    6.7687    3.9029  -11.2762 O   0  0  0  0  0  0  0  0  0  0  0  0
    6.6380    5.4520   -9.6405 O   0  0  0  0  0  0  0  0  0  0  0  0
    7.8176    6.0904  -10.1266 C   0  0  0  0  0  0  0  0  0  0  0  0
    9.0734    5.4055   -9.6070 C   0  0  0  0  0  0  0  0  0  0  0  0
    4.3148    4.1553   -8.5952 C   0  0  0  0  0  0  0  0  0  0  0  0
    4.6239    5.2190   -7.8486 F   0  0  0  0  0  0  0  0  0  0  0  0
    2.0717    1.3949   -9.0490 C   0  0  0  0  0  0  0  0  0  0  0  0
    1.1899    1.9011   -7.6331 S   0  0  0  0  0  0  0  0  0  0  0  0
    1.6488    0.2268   -9.7615 C   0  0  0  0  0  0  0  0  0  0  0  0
    2.2457   -0.2578  -10.8503 C   0  0  0  0  0  0  0  0  0  0  0  0
   -0.2272    0.4250   12.7301 H   0  0  0  0  0  0  0  0  0  0  0  0
    5.1639    3.1503    7.1929 H   0  0  0  0  0  0  0  0  0  0  0  0
    6.0988    1.8144    7.8914 H   0  0  0  0  0  0  0  0  0  0  0  0
    6.3655    1.8948    5.3985 H   0  0  0  0  0  0  0  0  0  0  0  0
    4.6135    1.7215    5.2075 H   0  0  0  0  0  0  0  0  0  0  0  0
    5.5586    0.3988    5.8950 H   0  0  0  0  0  0  0  0  0  0  0  0
   -0.7282   -1.4982    7.4304 H   0  0  0  0  0  0  0  0  0  0  0  0
   -2.9849   -2.3477    9.3294 H   0  0  0  0  0  0  0  0  0  0  0  0
   -4.8323   -3.6161    9.3173 H   0  0  0  0  0  0  0  0  0  0  0  0
   -7.7899   -6.8735    8.8566 H   0  0  0  0  0  0  0  0  0  0  0  0
   -8.5014   -5.8485   10.1252 H   0  0  0  0  0  0  0  0  0  0  0  0
   -8.7601   -5.4380    8.4128 H   0  0  0  0  0  0  0  0  0  0  0  0
   -7.2200   -6.0478    6.7408 H   0  0  0  0  0  0  0  0  0  0  0  0
   -5.7623   -5.5920    4.8706 H   0  0  0  0  0  0  0  0  0  0  0  0
    3.4776   -2.3763    2.8593 H   0  0  0  0  0  0  0  0  0  0  0  0
    3.2275   -2.3330    1.0846 H   0  0  0  0  0  0  0  0  0  0  0  0
    3.6042   -4.7723    0.9511 H   0  0  0  0  0  0  0  0  0  0  0  0
    4.9965   -3.9901    1.7098 H   0  0  0  0  0  0  0  0  0  0  0  0
    3.8195   -4.8604    2.7069 H   0  0  0  0  0  0  0  0  0  0  0  0
   -5.6063   -5.8491    0.3093 H   0  0  0  0  0  0  0  0  0  0  0  0
   -5.0830   -5.5437   -1.9639 H   0  0  0  0  0  0  0  0  0  0  0  0
   -2.5453   -4.5869   -9.3129 H   0  0  0  0  0  0  0  0  0  0  0  0
   -1.0602   -5.3477   -8.7115 H   0  0  0  0  0  0  0  0  0  0  0  0
    0.1456   -3.1609   -8.9343 H   0  0  0  0  0  0  0  0  0  0  0  0
   -0.5388   -3.6619  -10.4890 H   0  0  0  0  0  0  0  0  0  0  0  0
   -1.3347   -2.4035   -9.5305 H   0  0  0  0  0  0  0  0  0  0  0  0
   -2.4472    0.2621   -1.5089 H   0  0  0  0  0  0  0  0  0  0  0  0
   -1.3340   -0.4015   -4.2909 H   0  0  0  0  0  0  0  0  0  0  0  0
   -2.4807    5.9983    2.1304 H   0  0  0  0  0  0  0  0  0  0  0  0
   -3.5512    4.5931    2.4354 H   0  0  0  0  0  0  0  0  0  0  0  0
   -4.1430    6.9536    0.5707 H   0  0  0  0  0  0  0  0  0  0  0  0
   -5.2099    5.5610    0.8148 H   0  0  0  0  0  0  0  0  0  0  0  0
   -4.8900    6.6804    2.1498 H   0  0  0  0  0  0  0  0  0  0  0  0
    1.4032    5.2427   -4.6226 H   0  0  0  0  0  0  0  0  0  0  0  0
    2.7330    5.0853   -6.4523 H   0  0  0  0  0  0  0  0  0  0  0  0
    7.7486    7.1178   -9.7642 H   0  0  0  0  0  0  0  0  0  0  0  0
    7.8032    6.0755  -11.2216 H   0  0  0  0  0  0  0  0  0  0  0  0
    9.0598    5.3722   -8.5202 H   0  0  0  0  0  0  0  0  0  0  0  0
    9.9503    5.9554   -9.9360 H   0  0  0  0  0  0  0  0  0  0  0  0
    9.1294    4.3901   -9.9924 H   0  0  0  0  0  0  0  0  0  0  0  0
    0.7808   -0.2677   -9.3463 H   0  0  0  0  0  0  0  0  0  0  0  0
    1.8803   -1.1454  -11.3349 H   0  0  0  0  0  0  0  0  0  0  0  0
    3.1117    0.2134  -11.2818 H   0  0  0  0  0  0  0  0  0  0  0  0
  1  2  2  0  0  0  0
  2  3  1  0  0  0  0
  3  4  1  0  0  0  0
  4  5  1  0  0  0  0
  5  6  1  0  0  0  0
  6  7  2  0  0  0  0
  6  8  1  0  0  0  0
  8  9  1  0  0  0  0
  9 10  1  0  0  0  0
  5 11  2  0  0  0  0
 11 12  1  0  0  0  0
  3 13  2  0  0  0  0
 13 14  1  0  0  0  0
 13 15  1  0  0  0  0
 15 16  2  0  0  0  0
 16 17  1  0  0  0  0
 17 18  1  0  0  0  0
 18 19  1  0  0  0  0
 19 20  2  0  0  0  0
 20 21  1  0  0  0  0
 21 22  1  0  0  0  0
 22 23  2  0  0  0  0
 23 24  1  0  0  0  0
 24 25  1  0  0  0  0
 23 26  1  0  0  0  0
 26 27  2  0  0  0  0
 19 28  1  0  0  0  0
 28 29  2  0  0  0  0
 29 30  1  0  0  0  0
 30 31  1  0  0  0  0
 31 32  1  0  0  0  0
 32 33  1  0  0  0  0
 33 34  2  0  0  0  0
 33 35  1  0  0  0  0
 35 36  1  0  0  0  0
 36 37  1  0  0  0  0
 32 38  2  0  0  0  0
 38 39  1  0  0  0  0
 30 40  2  0  0  0  0
 40 41  1  0  0  0  0
 40 42  1  0  0  0  0
 42 43  2  0  0  0  0
 43 44  1  0  0  0  0
 44 45  2  0  0  0  0
 45 46  1  0  0  0  0
 46 47  1  0  0  0  0
 47 48  1  0  0  0  0
 48 49  1  0  0  0  0
 49 50  2  0  0  0  0
 49 51  1  0  0  0  0
 51 52  1  0  0  0  0
 52 53  1  0  0  0  0
 48 54  2  0  0  0  0
 54 55  1  0  0  0  0
 46 56  2  0  0  0  0
 56 57  1  0  0  0  0
 56 58  1  0  0  0  0
 58 59  2  0  0  0  0
 59 60  1  0  0  0  0
 60 61  2  0  0  0  0
 61 62  1  0  0  0  0
 62 63  1  0  0  0  0
 63 64  1  0  0  0  0
 64 65  1  0  0  0  0
 65 66  2  0  0  0  0
 65 67  1  0  0  0  0
 67 68  1  0  0  0  0
 68 69  1  0  0  0  0
 64 70  2  0  0  0  0
 70 71  1  0  0  0  0
 62 72  2  0  0  0  0
 72 73  1  0  0  0  0
 72 74  1  0  0  0  0
 74 75  2  0  0  0  0
 75 76  1  0  0  0  0
 76 77  2  0  0  0  0
 77 78  1  0  0  0  0
 78 79  1  0  0  0  0
 79 80  1  0  0  0  0
 80 81  1  0  0  0  0
 81 82  2  0  0  0  0
 81 83  1  0  0  0  0
 83 84  1  0  0  0  0
 84 85  1  0  0  0  0
 80 86  2  0  0  0  0
 86 87  1  0  0  0  0
 78 88  2  0  0  0  0
 88 89  1  0  0  0  0
 88 90  1  0  0  0  0
 90 91  2  0  0  0  0
 14  1  1  0  0  0  0
 21 17  2  0  0  0  0
 41 28  1  0  0  0  0
 57 44  1  0  0  0  0
 73 60  1  0  0  0  0
 89 76  1  0  0  0  0
 11  2  1  0  0  0  0
 27 20  1  0  0  0  0
 38 29  1  0  0  0  0
 54 45  1  0  0  0  0
 70 61  1  0  0  0  0
 86 77  1  0  0  0  0
  1 92  1  0  0  0  0
  9 93  1  0  0  0  0
  9 94  1  0  0  0  0
 10 95  1  0  0  0  0
 10 96  1  0  0  0  0
 10 97  1  0  0  0  0
 15 98  1  0  0  0  0
 16 99  1  0  0  0  0
 22100  1  0  0  0  0
 25101  1  0  0  0  0
 25102  1  0  0  0  0
 25103  1  0  0  0  0
 26104  1  0  0  0  0
 27105  1  0  0  0  0
 36106  1  0  0  0  0
 36107  1  0  0  0  0
 37108  1  0  0  0  0
 37109  1  0  0  0  0
 37110  1  0  0  0  0
 42111  1  0  0  0  0
 43112  1  0  0  0  0
 52113  1  0  0  0  0
 52114  1  0  0  0  0
 53115  1  0  0  0  0
 53116  1  0  0  0  0
 53117  1  0  0  0  0
 58118  1  0  0  0  0
 59119  1  0  0  0  0
 68120  1  0  0  0  0
 68121  1  0  0  0  0
 69122  1  0  0  0  0
 69123  1  0  0  0  0
 69124  1  0  0  0  0
 74125  1  0  0  0  0
 75126  1  0  0  0  0
 84127  1  0  0  0  0
 84128  1  0  0  0  0
 85129  1  0  0  0  0
 85130  1  0  0  0  0
 85131  1  0  0  0  0
 90132  1  0  0  0  0
 91133  1  0  0  0  0
 91134  1  0  0  0  0
M  END
