
  xtb     03022210323D
 energy: -163.748917978209 gnorm: 0.000427731948 xtb: 6.4.1 (unknown)
 99110  0     0  0            999 V2000
    9.1438    4.2519    3.1764 C   0  0  0  0  0  0  0  0  0  0  0  0
    7.5785    4.8400    2.7520 S   0  0  0  0  0  0  0  0  0  0  0  0
    6.9889    3.2321    2.3991 C   0  0  0  0  0  0  0  0  0  0  0  0
    7.9862    2.2942    2.6120 C   0  0  0  0  0  0  0  0  0  0  0  0
    8.0602    0.8769    2.4866 C   0  0  0  0  0  0  0  0  0  0  0  0
    9.2549    0.3295    2.7981 C   0  0  0  0  0  0  0  0  0  0  0  0
    9.6152   -1.1170    2.7634 C   0  0  0  0  0  0  0  0  0  0  0  0
    9.9905   -1.6345    4.1511 C   0  0  0  0  0  0  0  0  0  0  0  0
   10.5526    1.6265    3.3408 Se  0  0  0  0  0  2  0  0  0  0  0  0
    9.2032    2.9009    3.0531 C   0  0  0  0  0  0  0  0  0  0  0  0
    5.6576    3.0573    1.9614 C   0  0  0  0  0  0  0  0  0  0  0  0
    4.9998    1.4773    1.5900 S   0  0  0  0  0  0  0  0  0  0  0  0
    3.4370    2.1309    1.1586 C   0  0  0  0  0  0  0  0  0  0  0  0
    3.4329    3.5130    1.3024 C   0  0  0  0  0  0  0  0  0  0  0  0
    2.4475    4.5200    1.0894 C   0  0  0  0  0  0  0  0  0  0  0  0
    2.8528    5.7833    1.3443 C   0  0  0  0  0  0  0  0  0  0  0  0
    2.0442    7.0286    1.2038 C   0  0  0  0  0  0  0  0  0  0  0  0
    2.6741    7.9918    0.1993 C   0  0  0  0  0  0  0  0  0  0  0  0
    4.6703    5.8753    1.9280 Se  0  0  0  0  0  2  0  0  0  0  0  0
    4.6842    4.0127    1.7516 C   0  0  0  0  0  0  0  0  0  0  0  0
    2.4238    1.2545    0.7318 C   0  0  0  0  0  0  0  0  0  0  0  0
    0.8277    1.8116    0.2736 S   0  0  0  0  0  0  0  0  0  0  0  0
    0.2747    0.1956   -0.1053 C   0  0  0  0  0  0  0  0  0  0  0  0
    1.2900   -0.7288    0.1157 C   0  0  0  0  0  0  0  0  0  0  0  0
    1.3798   -2.1442   -0.0267 C   0  0  0  0  0  0  0  0  0  0  0  0
    2.5748   -2.6802    0.3042 C   0  0  0  0  0  0  0  0  0  0  0  0
    2.9566   -4.1213    0.2627 C   0  0  0  0  0  0  0  0  0  0  0  0
    3.2959   -4.6482    1.6561 C   0  0  0  0  0  0  0  0  0  0  0  0
    3.8362   -1.3701    0.8889 Se  0  0  0  0  0  2  0  0  0  0  0  0
    2.4811   -0.1190    0.5856 C   0  0  0  0  0  0  0  0  0  0  0  0
   -1.0447    0.0193   -0.5570 C   0  0  0  0  0  0  0  0  0  0  0  0
   -1.6894   -1.5350   -1.0377 S   0  0  0  0  0  0  0  0  0  0  0  0
   -3.2606   -0.8644   -1.4367 C   0  0  0  0  0  0  0  0  0  0  0  0
   -3.2829    0.4990   -1.1658 C   0  0  0  0  0  0  0  0  0  0  0  0
   -4.3103    1.4911   -1.1703 C   0  0  0  0  0  0  0  0  0  0  0  0
   -3.9230    2.7255   -0.7846 C   0  0  0  0  0  0  0  0  0  0  0  0
   -4.7753    3.9462   -0.6932 C   0  0  0  0  0  0  0  0  0  0  0  0
   -4.8248    4.4898    0.7334 C   0  0  0  0  0  0  0  0  0  0  0  0
   -2.0747    2.8059   -0.3076 Se  0  0  0  0  0  2  0  0  0  0  0  0
   -2.0317    0.9778   -0.6966 C   0  0  0  0  0  0  0  0  0  0  0  0
   -4.2671   -1.7264   -1.9242 C   0  0  0  0  0  0  0  0  0  0  0  0
   -4.2768   -3.3900   -1.4218 S   0  0  0  0  0  0  0  0  0  0  0  0
   -5.7183   -3.7550   -2.3124 C   0  0  0  0  0  0  0  0  0  0  0  0
   -6.1661   -2.6206   -3.0066 C   0  0  0  0  0  0  0  0  0  0  0  0
   -5.3273   -1.4777   -2.8091 C   0  0  0  0  0  0  0  0  0  0  0  0
   -5.5672   -0.3056   -3.5417 C   0  0  0  0  0  0  0  0  0  0  0  0
   -6.6559   -0.2251   -4.3807 C   0  0  0  0  0  0  0  0  0  0  0  0
   -6.8120    0.9556   -5.0440 O   0  0  0  0  0  0  0  0  0  0  0  0
   -7.8856    1.0983   -5.9415 C   0  0  0  0  0  0  0  0  0  0  0  0
   -7.5268   -1.3296   -4.5160 C   0  0  0  0  0  0  0  0  0  0  0  0
   -7.2787   -2.5016   -3.8587 C   0  0  0  0  0  0  0  0  0  0  0  0
   -6.2214   -5.0734   -2.2497 C   0  0  0  0  0  0  0  0  0  0  0  0
   -7.6828   -5.6114   -3.0554 S   0  0  0  0  0  0  0  0  0  0  0  0
   -7.5163   -7.2210   -2.4673 C   0  0  0  0  0  0  0  0  0  0  0  0
   -6.4033   -7.3649   -1.6897 C   0  0  0  0  0  0  0  0  0  0  0  0
   -5.8190   -8.4650   -0.9837 C   0  0  0  0  0  0  0  0  0  0  0  0
   -4.6814   -8.1793   -0.3211 C   0  0  0  0  0  0  0  0  0  0  0  0
   -3.8539   -9.1140    0.4958 C   0  0  0  0  0  0  0  0  0  0  0  0
   -2.4240   -9.2028   -0.0336 C   0  0  0  0  0  0  0  0  0  0  0  0
   -4.1476   -6.3472   -0.5100 Se  0  0  0  0  0  2  0  0  0  0  0  0
   -5.6752   -6.1431   -1.5679 C   0  0  0  0  0  0  0  0  0  0  0  0
    9.9037    4.9418    3.4831 H   0  0  0  0  0  0  0  0  0  0  0  0
    7.2230    0.2814    2.1632 H   0  0  0  0  0  0  0  0  0  0  0  0
   10.4632   -1.2644    2.0873 H   0  0  0  0  0  0  0  0  0  0  0  0
    8.7655   -1.6800    2.3710 H   0  0  0  0  0  0  0  0  0  0  0  0
   10.2570   -2.6875    4.1057 H   0  0  0  0  0  0  0  0  0  0  0  0
   10.8423   -1.0755    4.5389 H   0  0  0  0  0  0  0  0  0  0  0  0
    9.1565   -1.5129    4.8384 H   0  0  0  0  0  0  0  0  0  0  0  0
    1.4512    4.2887    0.7517 H   0  0  0  0  0  0  0  0  0  0  0  0
    1.9705    7.5258    2.1761 H   0  0  0  0  0  0  0  0  0  0  0  0
    1.0357    6.7581    0.8833 H   0  0  0  0  0  0  0  0  0  0  0  0
    2.7416    7.5252   -0.7808 H   0  0  0  0  0  0  0  0  0  0  0  0
    3.6800    8.2612    0.5235 H   0  0  0  0  0  0  0  0  0  0  0  0
    2.0806    8.8988    0.1158 H   0  0  0  0  0  0  0  0  0  0  0  0
    0.5530   -2.7395   -0.3753 H   0  0  0  0  0  0  0  0  0  0  0  0
    2.1296   -4.6933   -0.1633 H   0  0  0  0  0  0  0  0  0  0  0  0
    3.8285   -4.2469   -0.3868 H   0  0  0  0  0  0  0  0  0  0  0  0
    3.5919   -5.6932    1.6074 H   0  0  0  0  0  0  0  0  0  0  0  0
    2.4352   -4.5576    2.3144 H   0  0  0  0  0  0  0  0  0  0  0  0
    4.1178   -4.0714    2.0814 H   0  0  0  0  0  0  0  0  0  0  0  0
   -5.3281    1.2614   -1.4343 H   0  0  0  0  0  0  0  0  0  0  0  0
   -5.7823    3.6994   -1.0366 H   0  0  0  0  0  0  0  0  0  0  0  0
   -4.3715    4.7191   -1.3548 H   0  0  0  0  0  0  0  0  0  0  0  0
   -3.8173    4.7315    1.0738 H   0  0  0  0  0  0  0  0  0  0  0  0
   -5.2465    3.7476    1.4074 H   0  0  0  0  0  0  0  0  0  0  0  0
   -5.4327    5.3900    0.7784 H   0  0  0  0  0  0  0  0  0  0  0  0
   -4.8911    0.5303   -3.4825 H   0  0  0  0  0  0  0  0  0  0  0  0
   -7.8320    0.3688   -6.7559 H   0  0  0  0  0  0  0  0  0  0  0  0
   -8.8520    1.0093   -5.4343 H   0  0  0  0  0  0  0  0  0  0  0  0
   -7.7898    2.1020   -6.3533 H   0  0  0  0  0  0  0  0  0  0  0  0
   -8.3880   -1.2653   -5.1613 H   0  0  0  0  0  0  0  0  0  0  0  0
   -7.9387   -3.3416   -4.0021 H   0  0  0  0  0  0  0  0  0  0  0  0
   -8.2505   -7.9537   -2.7352 H   0  0  0  0  0  0  0  0  0  0  0  0
   -6.2682   -9.4442   -0.9901 H   0  0  0  0  0  0  0  0  0  0  0  0
   -3.8287   -8.7615    1.5317 H   0  0  0  0  0  0  0  0  0  0  0  0
   -4.3204  -10.1017    0.4854 H   0  0  0  0  0  0  0  0  0  0  0  0
   -1.9610   -8.2154   -0.0200 H   0  0  0  0  0  0  0  0  0  0  0  0
   -2.4204   -9.5705   -1.0573 H   0  0  0  0  0  0  0  0  0  0  0  0
   -1.8301   -9.8738    0.5820 H   0  0  0  0  0  0  0  0  0  0  0  0
  1  2  1  0  0  0  0
  2  3  1  0  0  0  0
  3  4  2  0  0  0  0
  4  5  1  0  0  0  0
  5  6  2  0  0  0  0
  6  7  1  0  0  0  0
  7  8  1  0  0  0  0
  6  9  1  0  0  0  0
  9 10  1  0  0  0  0
  3 11  1  0  0  0  0
 11 12  1  0  0  0  0
 12 13  1  0  0  0  0
 13 14  2  0  0  0  0
 14 15  1  0  0  0  0
 15 16  2  0  0  0  0
 16 17  1  0  0  0  0
 17 18  1  0  0  0  0
 16 19  1  0  0  0  0
 19 20  1  0  0  0  0
 13 21  1  0  0  0  0
 21 22  1  0  0  0  0
 22 23  1  0  0  0  0
 23 24  2  0  0  0  0
 24 25  1  0  0  0  0
 25 26  2  0  0  0  0
 26 27  1  0  0  0  0
 27 28  1  0  0  0  0
 26 29  1  0  0  0  0
 29 30  1  0  0  0  0
 23 31  1  0  0  0  0
 31 32  1  0  0  0  0
 32 33  1  0  0  0  0
 33 34  2  0  0  0  0
 34 35  1  0  0  0  0
 35 36  2  0  0  0  0
 36 37  1  0  0  0  0
 37 38  1  0  0  0  0
 36 39  1  0  0  0  0
 39 40  1  0  0  0  0
 33 41  1  0  0  0  0
 41 42  1  0  0  0  0
 42 43  1  0  0  0  0
 43 44  2  0  0  0  0
 44 45  1  0  0  0  0
 45 46  1  0  0  0  0
 46 47  2  0  0  0  0
 47 48  1  0  0  0  0
 48 49  1  0  0  0  0
 47 50  1  0  0  0  0
 50 51  2  0  0  0  0
 43 52  1  0  0  0  0
 52 53  1  0  0  0  0
 53 54  1  0  0  0  0
 54 55  2  0  0  0  0
 55 56  1  0  0  0  0
 56 57  2  0  0  0  0
 57 58  1  0  0  0  0
 58 59  1  0  0  0  0
 57 60  1  0  0  0  0
 60 61  1  0  0  0  0
 10  1  2  0  0  0  0
 20 11  2  0  0  0  0
 30 21  2  0  0  0  0
 40 31  2  0  0  0  0
 45 41  2  0  0  0  0
 61 52  2  0  0  0  0
 10  4  1  0  0  0  0
 20 14  1  0  0  0  0
 30 24  1  0  0  0  0
 40 34  1  0  0  0  0
 51 44  1  0  0  0  0
 61 55  1  0  0  0  0
  1 62  1  0  0  0  0
  5 63  1  0  0  0  0
  7 64  1  0  0  0  0
  7 65  1  0  0  0  0
  8 66  1  0  0  0  0
  8 67  1  0  0  0  0
  8 68  1  0  0  0  0
 15 69  1  0  0  0  0
 17 70  1  0  0  0  0
 17 71  1  0  0  0  0
 18 72  1  0  0  0  0
 18 73  1  0  0  0  0
 18 74  1  0  0  0  0
 25 75  1  0  0  0  0
 27 76  1  0  0  0  0
 27 77  1  0  0  0  0
 28 78  1  0  0  0  0
 28 79  1  0  0  0  0
 28 80  1  0  0  0  0
 35 81  1  0  0  0  0
 37 82  1  0  0  0  0
 37 83  1  0  0  0  0
 38 84  1  0  0  0  0
 38 85  1  0  0  0  0
 38 86  1  0  0  0  0
 46 87  1  0  0  0  0
 49 88  1  0  0  0  0
 49 89  1  0  0  0  0
 49 90  1  0  0  0  0
 50 91  1  0  0  0  0
 51 92  1  0  0  0  0
 54 93  1  0  0  0  0
 56 94  1  0  0  0  0
 58 95  1  0  0  0  0
 58 96  1  0  0  0  0
 59 97  1  0  0  0  0
 59 98  1  0  0  0  0
 59 99  1  0  0  0  0
M  END
