137

C          4.31810       12.31610       -9.13660
C          4.20730       11.75360       -7.91730
C          4.14630       10.32750       -7.96140
C          4.03620        9.42710       -6.89640
C          3.92470        9.88040       -5.47150
C          2.47110       10.20170       -5.11920
C          3.98850        8.08660       -7.23000
C          4.05170        7.60440       -8.56110
C          4.16530        8.50570       -9.62680
C          4.28450        8.04280      -11.04820
C          5.72570        7.64140      -11.36890
C          4.21440        9.84670       -9.29190
S          4.35830       11.16620      -10.42940
C          3.98810        6.18750       -8.61480
C          3.89630        5.58850       -7.39150
S          3.85380        6.77120       -6.09110
C          3.81600        4.20470       -7.06590
S          3.06200        3.72510       -5.58350
C          3.29680        2.03560       -5.89590
C          3.95490        1.85300       -7.11680
C          4.26490        3.08730       -7.77400
C          5.00290        3.08180       -8.97730
C          5.36790        1.88810       -9.54020
O          6.07910        1.74860      -10.69150
C          6.49150        2.91030      -11.36780
C          5.00640        0.66330       -8.91810
C          4.33280        0.64160       -7.73790
C          2.84250        1.10630       -4.92270
C          2.18870        1.42160       -3.76040
C          1.87920        0.31020       -2.94310
C          1.23390        0.29690       -1.69710
C          0.70640        1.54920       -1.06440
C         -0.66410        1.91070       -1.64020
C          1.07840       -0.93900       -1.10220
C          1.52980       -2.15410       -1.67960
C          2.15700       -2.14340       -2.93360
C          2.68000       -3.39450       -3.57320
C          4.06820       -3.74220       -3.03240
C          2.32050       -0.90630       -3.52280
S          3.09810       -0.62450       -5.06070
C          1.27490       -3.26710       -0.84210
C          0.66720       -2.94640        0.33940
S          0.33580       -1.22330        0.45280
C          0.29850       -3.80540        1.41050
S         -1.00700       -3.37400        2.46010
C         -0.87270       -4.82910        3.39380
C          0.17770       -5.62080        2.91150
C          0.85190       -5.03380        1.79130
C          1.97580       -5.67470        1.24390
C          2.39400       -6.88610        1.74170
O          3.49420       -7.42880        1.14760
C          3.98160       -8.66420        1.61110
C          1.69280       -7.49110        2.81060
C          0.62250       -6.87000        3.38620
C         -1.78430       -5.03350        4.46250
C         -2.84350       -4.22570        4.78480
C         -3.59500       -4.66240        5.90050
C         -4.73790       -4.07790        6.46780
C         -5.31800       -2.79830        5.94550
C         -4.58140       -1.59160        6.53030
C         -5.27660       -4.72510        7.56180
C         -4.74340       -5.91620        8.11700
C         -3.59900       -6.49850        7.55350
C         -3.01780       -7.77760        8.07620
C         -3.74820       -8.98450        7.48450
C         -3.06670       -5.85610        6.45490
S         -1.66680       -6.39680        5.56310
C         -5.50530       -6.37000        9.21810
C         -6.58670       -5.58610        9.51920
S         -6.70220       -4.21260        8.43380
C         -7.52020       -5.82580       10.56380
S         -7.26760       -7.20760       11.59150
C         -8.66380       -6.88870       12.51180
C         -9.32640       -5.76530       12.07070
C         -8.67730       -5.14190       10.94920
C         -9.24660       -3.98360       10.39300
C        -10.40620       -3.46280       10.91710
O        -10.88110       -2.33960       10.30920
C        -12.06730       -1.75060       10.78160
C        -11.04180       -4.08390       12.02400
C        -10.51670       -5.20560       12.58750
H          4.38190       13.35890       -9.38020
H          4.16640       12.32400       -7.00710
H          4.54610       10.76260       -5.30960
H          4.28440        9.08390       -4.81580
H          2.08670       10.98720       -5.76630
H          1.85090        9.31740       -5.24610
H          2.39640       10.53190       -4.08590
H          3.98120        8.85270      -11.71510
H          3.61980        7.19390      -11.21980
H          6.05930        6.84950      -10.70150
H          6.38830        8.49450      -11.24390
H          5.80300        7.29020      -12.39520
H          3.95670        5.63900       -9.53730
H          5.29150        4.02250       -9.41230
H          5.63560        3.51330      -11.68850
H          7.03680        2.56520      -12.24460
H          7.15420        3.52250      -10.74720
H          5.30460       -0.24880       -9.40950
H          4.08770       -0.29930       -7.27420
H          1.94480        2.43770       -3.50470
H          0.61350        1.39240        0.01270
H          1.40270        2.37290       -1.23170
H         -0.59730        2.06580       -2.71470
H         -1.37350        1.10820       -1.45170
H         -1.03940        2.82090       -1.17880
H          2.74380       -3.24190       -4.65310
H          1.99490       -4.22320       -3.38580
H          4.43770       -4.65310       -3.49710
H          4.03290       -3.88980       -1.95540
H          4.76630       -2.93600       -3.24550
H          1.49670       -4.27860       -1.12510
H          2.54260       -5.21930        0.45070
H          3.24560       -9.46420        1.48010
H          4.85670       -8.88020        1.00000
H          4.28160       -8.61230        2.66270
H          2.00960       -8.44760        3.19400
H          0.11750       -7.34180        4.21260
H         -3.07190       -3.33930        4.21970
H         -6.37270       -2.74520        6.22530
H         -5.25100       -2.77570        4.85650
H         -5.01060       -0.66720        6.15160
H         -4.66230       -1.59280        7.61490
H         -3.52740       -1.62230        6.26320
H         -1.96120       -7.82690        7.80250
H         -3.09050       -7.80210        9.16480
H         -3.32460       -9.90940        7.86830
H         -3.65570       -8.98360        6.40080
H         -4.80510       -8.95180        7.73940
H         -5.27400       -7.25870        9.77810
H         -8.92850       -7.53600       13.32370
H         -8.79240       -3.48550        9.55360
H        -11.96820       -1.41350       11.81880
H        -12.23850       -0.88670       10.14100
H        -12.92000       -2.43260       10.69880
H        -11.95110       -3.66660       12.42660
H        -10.99800       -5.68060       13.42910
