74

C          2.58860       -1.32700       -0.69900
S          3.65380       -1.10450        0.61220
C          2.85900        0.36470        1.04700
C          3.32580        1.10200        2.21270
O          4.28600        0.79100        2.87590
O          2.57360        2.17710        2.48290
C          1.81890        0.66320        0.20190
C          1.67330       -0.31010       -0.80260
O          0.76060       -0.33220       -1.82790
C          0.00740        0.75090       -2.11900
S          0.21920        1.51100       -3.65930
C         -1.10460        2.56570       -3.33960
C         -1.52100        3.51670       -4.37080
O         -0.89700        3.76070       -5.36910
O         -2.68920        4.10400       -4.07100
C         -1.65220        2.36630       -2.10130
C         -1.02090        1.32290       -1.39660
O         -1.27980        0.87620       -0.12870
C         -2.48320        1.00180        0.45790
S         -3.96590        1.39960       -0.33420
C         -4.83030        1.25110        1.16040
C         -6.26020        1.52200        1.15920
O         -6.89140        1.85850        0.18790
O         -6.81530        1.36200        2.37140
C         -4.01510        0.88780        2.19780
C         -2.67540        0.73300        1.80410
O         -1.68570        0.40650        2.69320
C         -0.83060       -0.58300        2.36890
S         -1.14110       -1.73070        1.13050
C          0.33500       -2.59630        1.46130
C          1.01620       -2.00700        2.53330
C          0.35640       -0.84400        3.04330
C          0.92530       -0.08850        4.08400
C          2.13170       -0.47410        4.61860
O          2.64390        0.32350        5.59210
C          3.95350        0.07330        6.05650
C          2.76900       -1.64710        4.14210
C          2.23150       -2.39300        3.13250
C          0.66970       -3.68650        0.62790
S          2.08780       -4.66700        0.79170
C          1.64820       -5.62700       -0.58850
C          2.47920       -6.72600       -1.03250
O          2.24230       -7.43470       -1.98200
O          3.57360       -6.88700       -0.26230
C          0.45900       -5.21290       -1.13950
C         -0.08690       -4.12470       -0.46170
O         -1.30690       -3.53660       -0.72760
C         -1.46260       -2.77080       -1.83050
S         -2.90030       -1.81560       -1.87630
C         -2.40940       -1.10520       -3.38050
C         -3.18290       -0.03940       -3.98790
O         -2.86250        0.56450       -4.98500
O         -4.29350        0.24300       -3.28780
C         -1.20630       -1.61090       -3.80660
C         -0.65180       -2.55440       -2.92470
O          0.55400       -3.16670       -3.09290
H          2.66510       -2.18170       -1.34040
H          2.89550        2.60500        3.29240
H          1.20860        1.53960        0.31060
H         -2.94130        4.70680       -4.78830
H         -2.46640        2.95990       -1.73100
H         -7.76530        1.55100        2.32040
H         -4.35870        0.73880        3.20400
H          0.42290        0.79250        4.44710
H          4.01890       -0.88390        6.58260
H          4.17100        0.87910        6.75600
H          4.67140        0.09850        5.23210
H          3.70570       -1.95760        4.57390
H          2.74030       -3.27940        2.79030
H          4.09700       -7.63340       -0.59090
H          0.01690       -5.68370       -1.99750
H         -4.78080        0.97140       -3.70150
H         -0.73690       -1.29030       -4.72020
H          0.95180       -2.84420       -3.90990
