204

C         11.38540       -0.65190       12.84280
C         11.54800       -0.98320       11.54600
C         10.54300       -0.42560       10.70270
C         10.42640       -0.52620        9.30760
C         11.30810       -1.38340        8.53310
S         12.17780       -0.78670        7.15200
C         12.89580       -2.32980        6.84080
C         13.78610       -2.54020        5.66640
C         12.96360       -2.79030        4.39990
C         12.46710       -3.24600        7.75450
Cl        12.95250       -4.89220        7.76070
C         11.57190       -2.71210        8.71970
Cl        10.84360       -3.67610        9.93900
C          9.42650        0.22470        8.70310
C          8.51330        1.02070        9.43590
C          8.57990        1.05990       10.83970
C          7.60300        1.79930       11.62110
S          7.22340        3.46360       11.28140
C          6.05520        3.54490       12.55470
C          5.23500        4.76670       12.77980
C          3.92330        4.68560       11.99400
C          5.97240        2.34500       13.19470
C          6.84850        1.35570       12.67290
Cl         6.85510       -0.25410       13.25920
Cl         4.91330        2.03730       14.50870
C          9.61500        0.34970       11.43880
S         10.00660        0.34910       13.13460
C          7.58110        1.66460        8.58650
C          7.76410        1.38570        7.26450
S          9.09340        0.28270        6.99480
C          6.98070        1.90540        6.18770
C          6.23500        3.04750        6.22190
C          5.48700        3.27190        5.04250
C          4.62090        4.34540        4.75190
C          4.43020        5.44410        5.68310
S          4.05800        5.17540        7.36220
C          3.98200        6.87000        7.70430
C          3.74840        7.37200        9.08610
C          5.07130        7.50710        9.84480
C          4.23860        7.58910        6.57620
Cl         4.26420        9.30350        6.52350
C          4.48640        6.78750        5.42940
Cl         4.90820        7.47010        3.91580
C          3.93760        4.28890        3.54480
C          4.12200        3.24000        2.61020
C          5.06500        2.22460        2.85490
C          5.30580        1.20280        1.85260
S          5.19390       -0.49490        2.20890
C          5.51630       -0.93880        0.56830
C          5.48760       -2.35970        0.12500
C          4.10840       -2.72550       -0.42990
C          5.70510        0.17370       -0.19730
C          5.58720        1.38870        0.52610
Cl         5.84350        2.92490       -0.19530
Cl         6.05470        0.12850       -1.87660
C          5.70130        2.24800        4.08650
S          6.83860        1.06280        4.66190
C          3.20850        3.31780        1.54090
C          2.34510        4.37980        1.61690
S          2.67240        5.37040        3.02640
C          1.25820        4.59680        0.73430
S          0.85360        3.31370       -0.35540
C         -0.55740        4.11930       -0.94300
C         -0.67900        5.38750       -0.35950
C          0.34790        5.65560        0.60510
C          0.36200        6.88060        1.28670
C         -0.60280        7.82810        1.02400
O         -0.51230        8.98410        1.73140
C         -1.45300       10.00590        1.50480
C         -1.59820        7.57310        0.05130
C         -1.63360        6.38680       -0.62440
C         -1.42410        3.37630       -1.78770
C         -2.75450        3.54410       -2.06490
C         -3.32880        2.46140       -2.76910
C         -4.67000        2.29670       -3.16410
C         -5.68680        3.27580       -2.81810
S         -6.72760        3.96580       -4.02800
C         -7.57000        4.93130       -2.86550
C         -8.64520        5.87560       -3.27670
C         -8.06140        7.23770       -3.65930
C         -7.05950        4.72400       -1.61890
Cl        -7.63890        5.50780       -0.20610
C         -5.99710        3.78170       -1.58590
Cl        -5.25370        3.28310       -0.11870
C         -4.98030        1.14650       -3.87370
C         -4.03140        0.13860       -4.17390
C         -2.69740        0.28020       -3.74240
C         -1.71150       -0.76190       -3.97310
S         -1.45220       -1.43340       -5.55880
C         -0.21310       -2.50020       -4.99700
C          0.43970       -3.48730       -5.90020
C         -0.21480       -4.86350       -5.75570
C         -0.02570       -2.33910       -3.65690
C         -0.87070       -1.35870       -3.07260
Cl        -0.88010       -1.06660       -1.38400
Cl         1.12390       -3.22570       -2.74230
C         -2.38100        1.44720       -3.06190
S         -0.80660        1.88040       -2.47260
C         -4.62350       -0.96120       -4.82720
C         -5.97510       -0.83770       -5.02530
S         -6.57350        0.69370       -4.41320
C         -6.80650       -1.82210       -5.61600
S         -6.04440       -3.18560       -6.36930
C         -7.55100       -3.96730       -6.70390
C         -8.62080       -3.18470       -6.26040
C         -8.20220       -1.95410       -5.65670
C         -9.16830       -1.05950       -5.17320
C        -10.50750       -1.36100       -5.28380
O        -11.36850       -0.43430       -4.78680
C        -12.75360       -0.67270       -4.86020
C        -10.91610       -2.57180       -5.89230
C         -9.99720       -3.46070       -6.36900
C         -7.52030       -5.25090       -7.31290
C         -6.47650       -5.77180       -8.02690
C         -6.66630       -7.11410       -8.42810
C         -5.80670       -7.92780       -9.18620
C         -4.51890       -7.44080       -9.65060
S         -4.08720       -7.54130      -11.33260
C         -2.55290       -6.78970      -11.06490
C         -1.58080       -6.60260      -12.17670
C         -0.77900       -7.88390      -12.41760
C         -2.39410       -6.49560       -9.74370
Cl        -0.99310       -5.74760       -9.09910
C         -3.50710       -6.85790       -8.93850
Cl        -3.51450       -6.65110       -7.23360
C         -6.25080       -9.21200       -9.47910
C         -7.49300       -9.72080       -9.03370
C         -8.36120       -8.90040       -8.29470
C         -9.66350       -9.37610       -7.85670
S        -10.14380       -9.29070       -6.18830
C        -11.68580      -10.00460       -6.51530
C        -12.65020      -10.28940       -5.41730
C        -12.31060      -11.60830       -4.71880
C        -11.80520      -10.28850       -7.84300
C        -10.66240       -9.92990       -8.60750
Cl       -10.59610      -10.11170      -10.31350
Cl       -13.19790      -11.00110       -8.54940
C         -7.91840       -7.61920       -8.00040
S         -8.82300       -6.41400       -7.12780
C         -7.66130      -11.08890       -9.39670
C         -6.61610      -11.57730      -10.09440
S         -5.35410      -10.42260      -10.35320
H         11.99780       -0.93390       13.67680
H         12.35950       -1.58530       11.18150
H         14.42940       -3.39980        5.86260
H         14.41260       -1.65810        5.52340
H         12.34570       -3.67640        4.52090
H         13.62370       -2.93880        3.54960
H         12.31620       -1.94050        4.19730
H          5.01490        4.85270       13.84560
H          5.79910        5.64570       12.46530
H          4.12330        4.58310       10.92990
H          3.34370        3.82630       12.32060
H          3.33510        5.58440       12.15770
H          6.78680        2.29400        8.94050
H          6.23190        3.71040        7.06630
H          3.26120        8.34700        9.02730
H          3.09020        6.68200        9.61600
H          5.57930        6.54690        9.89600
H          4.88700        7.86250       10.85500
H          5.72210        8.21600        9.33980
H          5.72760       -3.00730        0.96930
H          6.24030       -2.50280       -0.65320
H          3.86500       -2.09520       -1.28130
H          3.34460       -2.58840        0.33180
H          4.09750       -3.76340       -0.75180
H          3.15450        2.58920        0.75240
H          1.12710        7.10430        2.01120
H         -1.40920       10.37490        0.47490
H         -2.47180        9.67640        1.73280
H         -1.17730       10.81090        2.18430
H         -2.33750        8.32500       -0.17400
H         -2.38200        6.22650       -1.38300
H         -3.32530        4.38960       -1.73480
H         -9.18510        5.45850       -4.12810
H         -9.34140        5.99820       -2.44480
H         -8.85730        7.91500       -3.95690
H         -7.53280        7.67120       -2.81410
H         -7.36550        7.13010       -4.48790
H          0.35510       -3.14750       -6.93330
H          1.49790       -3.56050       -5.63960
H         -1.26580       -4.81340       -6.02970
H         -0.13890       -5.21190       -4.72890
H          0.28020       -5.58120       -6.40390
H         -4.08110       -1.84070       -5.12290
H         -8.88600       -0.12760       -4.71410
H        -13.22280        0.19430       -4.39770
H        -13.09560       -0.75570       -5.89690
H        -13.03910       -1.57330       -4.30730
H        -11.96500       -2.80190       -5.98770
H        -10.32330       -4.37610       -6.83630
H         -5.60560       -5.19170       -8.27070
H         -0.90220       -5.78800      -11.91720
H         -2.11830       -6.33450      -13.08780
H         -0.06940       -7.73390      -13.22680
H         -0.23130       -8.16010      -11.52010
H         -1.44580       -8.70090      -12.68300
H        -13.65490      -10.34670       -5.83980
H        -12.62080       -9.47630       -4.68990
H        -12.34740      -12.43110       -5.42820
H        -11.31210      -11.56160       -4.29090
H        -13.02350      -11.80330       -3.92220
H         -8.52330      -11.67130       -9.12930
H         -6.49080      -12.56770      -10.48610
