
  xtb     03022200383D
 energy: -279.328375834141 gnorm: 0.000557302097 xtb: 6.4.1 (unknown)
159175  0     0  0            999 V2000
   -0.0992   -0.5007   10.2630 C   0  0  0  0  0  0  0  0  0  0  0  0
    0.5355   -1.1575    8.8197 S   0  0  0  0  0  0  0  0  0  0  0  0
   -0.6546   -0.3251    7.8655 C   0  0  0  0  0  0  0  0  0  0  0  0
   -1.5163    0.4019    8.6595 C   0  0  0  0  0  0  0  0  0  0  0  0
   -2.6888    1.1423    8.1771 C   0  0  0  0  0  0  0  0  0  0  0  0
   -3.0373    1.1657    7.0070 O   0  0  0  0  0  0  0  0  0  0  0  0
   -3.4215    1.8318    9.2426 C   0  0  0  0  0  0  0  0  0  0  0  0
   -4.5615    2.5673    9.0306 C   0  0  0  0  0  0  0  0  0  0  0  0
   -5.2713    2.8567    7.7566 C   0  0  0  0  0  0  0  0  0  0  0  0
   -4.5608    3.9595    6.9678 C   0  0  0  0  0  0  0  0  0  0  0  0
   -5.1599    3.2266   10.5140 S   0  0  0  0  0  0  0  0  0  0  0  0
   -3.8895    2.4982   11.4364 C   0  0  0  0  0  0  0  0  0  0  0  0
   -3.8073    2.7254   12.9020 C   0  0  0  0  0  0  0  0  0  0  0  0
   -2.8767    3.9013   13.2137 C   0  0  0  0  0  0  0  0  0  0  0  0
   -3.0392    1.7891   10.6260 C   0  0  0  0  0  0  0  0  0  0  0  0
   -1.8943    1.0157   11.1114 C   0  0  0  0  0  0  0  0  0  0  0  0
   -1.5539    0.9494   12.2796 O   0  0  0  0  0  0  0  0  0  0  0  0
   -1.1789    0.3064   10.0410 C   0  0  0  0  0  0  0  0  0  0  0  0
   -0.6553   -0.4362    6.4342 C   0  0  0  0  0  0  0  0  0  0  0  0
   -0.6639   -1.9889    5.6602 S   0  0  0  0  0  0  0  0  0  0  0  0
   -0.7852   -1.2786    4.0659 C   0  0  0  0  0  0  0  0  0  0  0  0
   -0.8205    0.1182    4.1715 C   0  0  0  0  0  0  0  0  0  0  0  0
   -1.0683    1.0339    3.0759 C   0  0  0  0  0  0  0  0  0  0  0  0
   -1.0739    0.6961    1.8935 O   0  0  0  0  0  0  0  0  0  0  0  0
   -1.3404    2.4114    3.4837 C   0  0  0  0  0  0  0  0  0  0  0  0
   -1.8120    3.3885    2.6440 C   0  0  0  0  0  0  0  0  0  0  0  0
   -2.1585    3.2979    1.2017 C   0  0  0  0  0  0  0  0  0  0  0  0
   -0.9183    3.5011    0.3269 C   0  0  0  0  0  0  0  0  0  0  0  0
   -1.9562    4.8994    3.4776 S   0  0  0  0  0  0  0  0  0  0  0  0
   -1.3631    4.2250    4.9588 C   0  0  0  0  0  0  0  0  0  0  0  0
   -1.1542    5.0939    6.1454 C   0  0  0  0  0  0  0  0  0  0  0  0
    0.2228    5.7616    6.0790 C   0  0  0  0  0  0  0  0  0  0  0  0
   -1.0951    2.8889    4.8117 C   0  0  0  0  0  0  0  0  0  0  0  0
   -0.6462    2.0030    5.8829 C   0  0  0  0  0  0  0  0  0  0  0  0
   -0.2361    2.3894    6.9636 O   0  0  0  0  0  0  0  0  0  0  0  0
   -0.7242    0.5796    5.5134 C   0  0  0  0  0  0  0  0  0  0  0  0
   -0.7886   -2.1114    2.9246 C   0  0  0  0  0  0  0  0  0  0  0  0
   -0.3380   -1.5077    1.3637 S   0  0  0  0  0  0  0  0  0  0  0  0
   -0.3055   -3.0827    0.6694 C   0  0  0  0  0  0  0  0  0  0  0  0
   -0.7622   -4.0530    1.5692 C   0  0  0  0  0  0  0  0  0  0  0  0
   -1.0140   -3.5101    2.8653 C   0  0  0  0  0  0  0  0  0  0  0  0
   -1.4911   -4.3598    3.8686 C   0  0  0  0  0  0  0  0  0  0  0  0
   -1.7028   -5.7003    3.6077 C   0  0  0  0  0  0  0  0  0  0  0  0
   -2.1574   -6.4361    4.6552 O   0  0  0  0  0  0  0  0  0  0  0  0
   -2.3785   -7.8153    4.4806 C   0  0  0  0  0  0  0  0  0  0  0  0
   -1.4876   -6.2175    2.3133 C   0  0  0  0  0  0  0  0  0  0  0  0
   -1.0428   -5.4039    1.3093 C   0  0  0  0  0  0  0  0  0  0  0  0
    0.0869   -3.2190   -0.6886 C   0  0  0  0  0  0  0  0  0  0  0  0
   -0.2980   -1.9315   -1.7958 S   0  0  0  0  0  0  0  0  0  0  0  0
    0.4497   -2.7726   -3.1164 C   0  0  0  0  0  0  0  0  0  0  0  0
    0.9369   -3.9990   -2.7216 C   0  0  0  0  0  0  0  0  0  0  0  0
    1.4812   -4.9968   -3.6559 C   0  0  0  0  0  0  0  0  0  0  0  0
    1.3435   -4.9183   -4.8651 O   0  0  0  0  0  0  0  0  0  0  0  0
    2.1357   -6.1166   -2.9823 C   0  0  0  0  0  0  0  0  0  0  0  0
    2.7594   -7.1526   -3.6312 C   0  0  0  0  0  0  0  0  0  0  0  0
    2.9504   -7.3596   -5.0910 C   0  0  0  0  0  0  0  0  0  0  0  0
    4.0813   -6.4786   -5.6279 C   0  0  0  0  0  0  0  0  0  0  0  0
    3.4023   -8.2919   -2.5000 S   0  0  0  0  0  0  0  0  0  0  0  0
    2.8171   -7.3866   -1.1434 C   0  0  0  0  0  0  0  0  0  0  0  0
    3.0819   -7.8641    0.2385 C   0  0  0  0  0  0  0  0  0  0  0  0
    4.3489   -7.2132    0.8010 C   0  0  0  0  0  0  0  0  0  0  0  0
    2.1663   -6.2518   -1.5551 C   0  0  0  0  0  0  0  0  0  0  0  0
    1.5171   -5.3055   -0.6411 C   0  0  0  0  0  0  0  0  0  0  0  0
    1.6190   -5.3743    0.5738 O   0  0  0  0  0  0  0  0  0  0  0  0
    0.7843   -4.2366   -1.3276 C   0  0  0  0  0  0  0  0  0  0  0  0
    0.5454   -2.1490   -4.4035 C   0  0  0  0  0  0  0  0  0  0  0  0
   -0.8305   -1.3373   -5.0664 S   0  0  0  0  0  0  0  0  0  0  0  0
    0.0461   -0.9076   -6.4931 C   0  0  0  0  0  0  0  0  0  0  0  0
    1.3427   -1.3757   -6.4493 C   0  0  0  0  0  0  0  0  0  0  0  0
    2.3227   -1.1536   -7.5196 C   0  0  0  0  0  0  0  0  0  0  0  0
    2.0537   -0.5522   -8.5478 O   0  0  0  0  0  0  0  0  0  0  0  0
    3.6375   -1.7249   -7.2338 C   0  0  0  0  0  0  0  0  0  0  0  0
    4.6975   -1.6951   -8.1057 C   0  0  0  0  0  0  0  0  0  0  0  0
    4.7451   -1.1832   -9.4998 C   0  0  0  0  0  0  0  0  0  0  0  0
    4.1782   -2.2191  -10.4753 C   0  0  0  0  0  0  0  0  0  0  0  0
    6.0939   -2.4386   -7.4073 S   0  0  0  0  0  0  0  0  0  0  0  0
    5.2652   -2.7723   -5.9235 C   0  0  0  0  0  0  0  0  0  0  0  0
    6.0059   -3.3860   -4.7913 C   0  0  0  0  0  0  0  0  0  0  0  0
    6.6708   -2.3000   -3.9394 C   0  0  0  0  0  0  0  0  0  0  0  0
    3.9643   -2.3394   -5.9794 C   0  0  0  0  0  0  0  0  0  0  0  0
    2.9979   -2.5037   -4.8899 C   0  0  0  0  0  0  0  0  0  0  0  0
    3.3023   -2.9384   -3.7909 O   0  0  0  0  0  0  0  0  0  0  0  0
    1.6412   -2.0631   -5.2401 C   0  0  0  0  0  0  0  0  0  0  0  0
   -0.6009   -0.1423   -7.5269 C   0  0  0  0  0  0  0  0  0  0  0  0
   -0.7218   -0.7285   -9.1534 S   0  0  0  0  0  0  0  0  0  0  0  0
   -1.6060    0.6509   -9.6297 C   0  0  0  0  0  0  0  0  0  0  0  0
   -1.7985    1.5372   -8.6061 C   0  0  0  0  0  0  0  0  0  0  0  0
   -2.5193    2.8093   -8.7414 C   0  0  0  0  0  0  0  0  0  0  0  0
   -3.0309    3.1644   -9.7891 O   0  0  0  0  0  0  0  0  0  0  0  0
   -2.5661    3.5825   -7.4963 C   0  0  0  0  0  0  0  0  0  0  0  0
   -3.1783    4.8034   -7.3686 C   0  0  0  0  0  0  0  0  0  0  0  0
   -3.9363    5.5786   -8.3843 C   0  0  0  0  0  0  0  0  0  0  0  0
   -5.3979    5.1230   -8.4305 C   0  0  0  0  0  0  0  0  0  0  0  0
   -3.0400    5.4015   -5.7496 S   0  0  0  0  0  0  0  0  0  0  0  0
   -2.1404    4.0157   -5.2363 C   0  0  0  0  0  0  0  0  0  0  0  0
   -1.6456    3.9284   -3.8377 C   0  0  0  0  0  0  0  0  0  0  0  0
   -0.2098    4.4532   -3.7398 C   0  0  0  0  0  0  0  0  0  0  0  0
   -1.9554    3.1371   -6.2748 C   0  0  0  0  0  0  0  0  0  0  0  0
   -1.2217    1.8760   -6.1533 C   0  0  0  0  0  0  0  0  0  0  0  0
   -0.6446    1.5248   -5.1360 O   0  0  0  0  0  0  0  0  0  0  0  0
   -1.2239    1.0800   -7.3852 C   0  0  0  0  0  0  0  0  0  0  0  0
    0.3462   -0.7295   11.2113 H   0  0  0  0  0  0  0  0  0  0  0  0
   -5.2844    1.9505    7.1473 H   0  0  0  0  0  0  0  0  0  0  0  0
   -6.2974    3.1595    7.9752 H   0  0  0  0  0  0  0  0  0  0  0  0
   -5.1243    4.1938    6.0686 H   0  0  0  0  0  0  0  0  0  0  0  0
   -3.5716    3.6179    6.6779 H   0  0  0  0  0  0  0  0  0  0  0  0
   -4.4657    4.8615    7.5687 H   0  0  0  0  0  0  0  0  0  0  0  0
   -3.4066    1.8271   13.3752 H   0  0  0  0  0  0  0  0  0  0  0  0
   -4.8041    2.9307   13.2973 H   0  0  0  0  0  0  0  0  0  0  0  0
   -3.2280    4.8082   12.7255 H   0  0  0  0  0  0  0  0  0  0  0  0
   -2.8428    4.0713   14.2862 H   0  0  0  0  0  0  0  0  0  0  0  0
   -1.8715    3.6789   12.8659 H   0  0  0  0  0  0  0  0  0  0  0  0
   -2.5667    2.3064    0.9975 H   0  0  0  0  0  0  0  0  0  0  0  0
   -2.9078    4.0546    0.9595 H   0  0  0  0  0  0  0  0  0  0  0  0
   -0.4628    4.4692    0.5265 H   0  0  0  0  0  0  0  0  0  0  0  0
   -1.1972    3.4502   -0.7217 H   0  0  0  0  0  0  0  0  0  0  0  0
   -0.1943    2.7168    0.5296 H   0  0  0  0  0  0  0  0  0  0  0  0
   -1.9314    5.8604    6.1839 H   0  0  0  0  0  0  0  0  0  0  0  0
   -1.2034    4.4788    7.0458 H   0  0  0  0  0  0  0  0  0  0  0  0
    0.3638    6.4070    6.9416 H   0  0  0  0  0  0  0  0  0  0  0  0
    0.3147    6.3595    5.1744 H   0  0  0  0  0  0  0  0  0  0  0  0
    1.0016    5.0034    6.0818 H   0  0  0  0  0  0  0  0  0  0  0  0
   -1.7333   -4.0025    4.8546 H   0  0  0  0  0  0  0  0  0  0  0  0
   -3.1686   -8.0085    3.7478 H   0  0  0  0  0  0  0  0  0  0  0  0
   -2.6963   -8.1850    5.4543 H   0  0  0  0  0  0  0  0  0  0  0  0
   -1.4640   -8.3350    4.1786 H   0  0  0  0  0  0  0  0  0  0  0  0
   -1.6930   -7.2544    2.1005 H   0  0  0  0  0  0  0  0  0  0  0  0
   -0.9252   -5.7900    0.3096 H   0  0  0  0  0  0  0  0  0  0  0  0
    3.1766   -8.4105   -5.2828 H   0  0  0  0  0  0  0  0  0  0  0  0
    2.0263   -7.0893   -5.6063 H   0  0  0  0  0  0  0  0  0  0  0  0
    4.2293   -6.6696   -6.6874 H   0  0  0  0  0  0  0  0  0  0  0  0
    5.0108   -6.6830   -5.1006 H   0  0  0  0  0  0  0  0  0  0  0  0
    3.8214   -5.4321   -5.4975 H   0  0  0  0  0  0  0  0  0  0  0  0
    2.2387   -7.5864    0.8740 H   0  0  0  0  0  0  0  0  0  0  0  0
    3.1953   -8.9503    0.2354 H   0  0  0  0  0  0  0  0  0  0  0  0
    5.2057   -7.4302    0.1663 H   0  0  0  0  0  0  0  0  0  0  0  0
    4.5473   -7.5918    1.8000 H   0  0  0  0  0  0  0  0  0  0  0  0
    4.2123   -6.1368    0.8582 H   0  0  0  0  0  0  0  0  0  0  0  0
    5.7776   -0.9514   -9.7686 H   0  0  0  0  0  0  0  0  0  0  0  0
    4.1422   -0.2755   -9.5633 H   0  0  0  0  0  0  0  0  0  0  0  0
    4.2470   -1.8445  -11.4928 H   0  0  0  0  0  0  0  0  0  0  0  0
    3.1332   -2.4102  -10.2461 H   0  0  0  0  0  0  0  0  0  0  0  0
    4.7322   -3.1531  -10.4070 H   0  0  0  0  0  0  0  0  0  0  0  0
    5.3046   -3.9401   -4.1659 H   0  0  0  0  0  0  0  0  0  0  0  0
    6.7676   -4.0667   -5.1776 H   0  0  0  0  0  0  0  0  0  0  0  0
    7.2323   -2.7572   -3.1293 H   0  0  0  0  0  0  0  0  0  0  0  0
    5.9117   -1.6504   -3.5115 H   0  0  0  0  0  0  0  0  0  0  0  0
    7.3501   -1.7011   -4.5429 H   0  0  0  0  0  0  0  0  0  0  0  0
   -1.9416    0.7639  -10.6420 H   0  0  0  0  0  0  0  0  0  0  0  0
   -3.4857    5.4109   -9.3640 H   0  0  0  0  0  0  0  0  0  0  0  0
   -3.8912    6.6422   -8.1412 H   0  0  0  0  0  0  0  0  0  0  0  0
   -5.4496    4.0787   -8.7265 H   0  0  0  0  0  0  0  0  0  0  0  0
   -5.9468    5.7163   -9.1564 H   0  0  0  0  0  0  0  0  0  0  0  0
   -5.8669    5.2391   -7.4554 H   0  0  0  0  0  0  0  0  0  0  0  0
   -1.6578    2.8830   -3.5229 H   0  0  0  0  0  0  0  0  0  0  0  0
   -2.2968    4.5133   -3.1845 H   0  0  0  0  0  0  0  0  0  0  0  0
    0.4495    3.8332   -4.3411 H   0  0  0  0  0  0  0  0  0  0  0  0
    0.1294    4.4181   -2.7081 H   0  0  0  0  0  0  0  0  0  0  0  0
   -0.1522    5.4804   -4.0939 H   0  0  0  0  0  0  0  0  0  0  0  0
  1  2  1  0  0  0  0
  2  3  1  0  0  0  0
  3  4  2  0  0  0  0
  4  5  1  0  0  0  0
  5  6  2  0  0  0  0
  5  7  1  0  0  0  0
  7  8  2  0  0  0  0
  8  9  1  0  0  0  0
  9 10  1  0  0  0  0
  8 11  1  0  0  0  0
 11 12  1  0  0  0  0
 12 13  1  0  0  0  0
 13 14  1  0  0  0  0
 12 15  2  0  0  0  0
 15 16  1  0  0  0  0
 16 17  2  0  0  0  0
 16 18  1  0  0  0  0
  3 19  1  0  0  0  0
 19 20  1  0  0  0  0
 20 21  1  0  0  0  0
 21 22  2  0  0  0  0
 22 23  1  0  0  0  0
 23 24  2  0  0  0  0
 23 25  1  0  0  0  0
 25 26  2  0  0  0  0
 26 27  1  0  0  0  0
 27 28  1  0  0  0  0
 26 29  1  0  0  0  0
 29 30  1  0  0  0  0
 30 31  1  0  0  0  0
 31 32  1  0  0  0  0
 30 33  2  0  0  0  0
 33 34  1  0  0  0  0
 34 35  2  0  0  0  0
 34 36  1  0  0  0  0
 21 37  1  0  0  0  0
 37 38  1  0  0  0  0
 38 39  1  0  0  0  0
 39 40  2  0  0  0  0
 40 41  1  0  0  0  0
 41 42  1  0  0  0  0
 42 43  2  0  0  0  0
 43 44  1  0  0  0  0
 44 45  1  0  0  0  0
 43 46  1  0  0  0  0
 46 47  2  0  0  0  0
 39 48  1  0  0  0  0
 48 49  1  0  0  0  0
 49 50  1  0  0  0  0
 50 51  2  0  0  0  0
 51 52  1  0  0  0  0
 52 53  2  0  0  0  0
 52 54  1  0  0  0  0
 54 55  2  0  0  0  0
 55 56  1  0  0  0  0
 56 57  1  0  0  0  0
 55 58  1  0  0  0  0
 58 59  1  0  0  0  0
 59 60  1  0  0  0  0
 60 61  1  0  0  0  0
 59 62  2  0  0  0  0
 62 63  1  0  0  0  0
 63 64  2  0  0  0  0
 63 65  1  0  0  0  0
 50 66  1  0  0  0  0
 66 67  1  0  0  0  0
 67 68  1  0  0  0  0
 68 69  2  0  0  0  0
 69 70  1  0  0  0  0
 70 71  2  0  0  0  0
 70 72  1  0  0  0  0
 72 73  2  0  0  0  0
 73 74  1  0  0  0  0
 74 75  1  0  0  0  0
 73 76  1  0  0  0  0
 76 77  1  0  0  0  0
 77 78  1  0  0  0  0
 78 79  1  0  0  0  0
 77 80  2  0  0  0  0
 80 81  1  0  0  0  0
 81 82  2  0  0  0  0
 81 83  1  0  0  0  0
 68 84  1  0  0  0  0
 84 85  1  0  0  0  0
 85 86  1  0  0  0  0
 86 87  2  0  0  0  0
 87 88  1  0  0  0  0
 88 89  2  0  0  0  0
 88 90  1  0  0  0  0
 90 91  2  0  0  0  0
 91 92  1  0  0  0  0
 92 93  1  0  0  0  0
 91 94  1  0  0  0  0
 94 95  1  0  0  0  0
 95 96  1  0  0  0  0
 96 97  1  0  0  0  0
 95 98  2  0  0  0  0
 98 99  1  0  0  0  0
 99100  2  0  0  0  0
 99101  1  0  0  0  0
 18  1  2  0  0  0  0
 36 19  2  0  0  0  0
 41 37  2  0  0  0  0
 65 48  2  0  0  0  0
 83 66  2  0  0  0  0
101 84  2  0  0  0  0
 18  4  1  0  0  0  0
 36 22  1  0  0  0  0
 47 40  1  0  0  0  0
 65 51  1  0  0  0  0
 83 69  1  0  0  0  0
101 87  1  0  0  0  0
 15  7  1  0  0  0  0
 33 25  1  0  0  0  0
 62 54  1  0  0  0  0
 80 72  1  0  0  0  0
 98 90  1  0  0  0  0
  1102  1  0  0  0  0
  9103  1  0  0  0  0
  9104  1  0  0  0  0
 10105  1  0  0  0  0
 10106  1  0  0  0  0
 10107  1  0  0  0  0
 13108  1  0  0  0  0
 13109  1  0  0  0  0
 14110  1  0  0  0  0
 14111  1  0  0  0  0
 14112  1  0  0  0  0
 27113  1  0  0  0  0
 27114  1  0  0  0  0
 28115  1  0  0  0  0
 28116  1  0  0  0  0
 28117  1  0  0  0  0
 31118  1  0  0  0  0
 31119  1  0  0  0  0
 32120  1  0  0  0  0
 32121  1  0  0  0  0
 32122  1  0  0  0  0
 42123  1  0  0  0  0
 45124  1  0  0  0  0
 45125  1  0  0  0  0
 45126  1  0  0  0  0
 46127  1  0  0  0  0
 47128  1  0  0  0  0
 56129  1  0  0  0  0
 56130  1  0  0  0  0
 57131  1  0  0  0  0
 57132  1  0  0  0  0
 57133  1  0  0  0  0
 60134  1  0  0  0  0
 60135  1  0  0  0  0
 61136  1  0  0  0  0
 61137  1  0  0  0  0
 61138  1  0  0  0  0
 74139  1  0  0  0  0
 74140  1  0  0  0  0
 75141  1  0  0  0  0
 75142  1  0  0  0  0
 75143  1  0  0  0  0
 78144  1  0  0  0  0
 78145  1  0  0  0  0
 79146  1  0  0  0  0
 79147  1  0  0  0  0
 79148  1  0  0  0  0
 86149  1  0  0  0  0
 92150  1  0  0  0  0
 92151  1  0  0  0  0
 93152  1  0  0  0  0
 93153  1  0  0  0  0
 93154  1  0  0  0  0
 96155  1  0  0  0  0
 96156  1  0  0  0  0
 97157  1  0  0  0  0
 97158  1  0  0  0  0
 97159  1  0  0  0  0
M  END
