
  xtb     03022216363D
 energy: -233.756166985534 gnorm: 0.000272580267 xtb: 6.4.1 (unknown)
129143  0     0  0            999 V2000
    5.3661    0.8626    9.8641 C   0  0  0  0  0  0  0  0  0  0  0  0
    3.8389    0.4285    9.2469 S   0  0  0  0  0  0  0  0  0  0  0  0
    4.3610    0.5921    7.5982 C   0  0  0  0  0  0  0  0  0  0  0  0
    5.7043    0.9765    7.5524 C   0  0  0  0  0  0  0  0  0  0  0  0
    6.2750    1.1306    8.8621 C   0  0  0  0  0  0  0  0  0  0  0  0
    7.6229    1.5152    9.0097 C   0  0  0  0  0  0  0  0  0  0  0  0
    8.3922    1.7419    7.8967 C   0  0  0  0  0  0  0  0  0  0  0  0
    9.6857    2.1101    8.1195 O   0  0  0  0  0  0  0  0  0  0  0  0
   10.5296    2.3501    7.0199 C   0  0  0  0  0  0  0  0  0  0  0  0
    7.8286    1.5890    6.6035 C   0  0  0  0  0  0  0  0  0  0  0  0
    6.5268    1.2185    6.4340 C   0  0  0  0  0  0  0  0  0  0  0  0
    3.4237    0.3340    6.5626 C   0  0  0  0  0  0  0  0  0  0  0  0
    2.1166   -0.0393    6.7352 C   0  0  0  0  0  0  0  0  0  0  0  0
    1.4049   -0.2317    5.5319 C   0  0  0  0  0  0  0  0  0  0  0  0
    0.0409   -0.5483    5.3701 C   0  0  0  0  0  0  0  0  0  0  0  0
   -0.8165   -0.8158    6.5122 C   0  0  0  0  0  0  0  0  0  0  0  0
   -0.3686   -2.0072    7.7001 S   0  0  0  0  0  0  0  0  0  0  0  0
   -1.8336   -1.7870    8.5946 C   0  0  0  0  0  0  0  0  0  0  0  0
   -2.1296   -2.6053    9.8026 C   0  0  0  0  0  0  0  0  0  0  0  0
   -2.7167   -3.9638    9.4124 C   0  0  0  0  0  0  0  0  0  0  0  0
   -2.6156   -0.8481    7.9928 C   0  0  0  0  0  0  0  0  0  0  0  0
   -4.1515   -0.3587    8.5837 Cl  0  0  0  0  0  0  0  0  0  0  0  0
   -2.0417   -0.2917    6.8180 C   0  0  0  0  0  0  0  0  0  0  0  0
   -2.8005    0.9773    5.9510 Cl  0  0  0  0  0  0  0  0  0  0  0  0
   -0.4368   -0.6198    4.0705 C   0  0  0  0  0  0  0  0  0  0  0  0
    0.3808   -0.4037    2.9339 C   0  0  0  0  0  0  0  0  0  0  0  0
    1.7406   -0.0716    3.0943 C   0  0  0  0  0  0  0  0  0  0  0  0
    2.5649    0.2031    1.9300 C   0  0  0  0  0  0  0  0  0  0  0  0
    2.0249    1.3381    0.7247 S   0  0  0  0  0  0  0  0  0  0  0  0
    3.4145    1.0719   -0.2709 C   0  0  0  0  0  0  0  0  0  0  0  0
    3.5224    1.7251   -1.6048 C   0  0  0  0  0  0  0  0  0  0  0  0
    2.5327    1.1014   -2.5929 C   0  0  0  0  0  0  0  0  0  0  0  0
    4.2465    0.1681    0.3175 C   0  0  0  0  0  0  0  0  0  0  0  0
    3.7732   -0.3216    1.5662 C   0  0  0  0  0  0  0  0  0  0  0  0
    4.6115   -1.5252    2.4532 Cl  0  0  0  0  0  0  0  0  0  0  0  0
    5.7298   -0.3577   -0.3685 Cl  0  0  0  0  0  0  0  0  0  0  0  0
    2.2162    0.0064    4.3944 C   0  0  0  0  0  0  0  0  0  0  0  0
    3.8284    0.4633    4.8607 S   0  0  0  0  0  0  0  0  0  0  0  0
   -0.3285   -0.5859    1.7312 C   0  0  0  0  0  0  0  0  0  0  0  0
   -1.6561   -0.8868    1.8982 C   0  0  0  0  0  0  0  0  0  0  0  0
   -2.0663   -1.0141    3.5990 S   0  0  0  0  0  0  0  0  0  0  0  0
   -2.5878   -1.0443    0.8459 C   0  0  0  0  0  0  0  0  0  0  0  0
   -1.9651   -1.1737   -0.7720 S   0  0  0  0  0  0  0  0  0  0  0  0
   -3.5474   -1.2020   -1.4845 C   0  0  0  0  0  0  0  0  0  0  0  0
   -4.5306   -1.0636   -0.4935 C   0  0  0  0  0  0  0  0  0  0  0  0
   -3.9871   -1.0145    0.8291 C   0  0  0  0  0  0  0  0  0  0  0  0
   -4.8414   -0.8733    1.9399 C   0  0  0  0  0  0  0  0  0  0  0  0
   -6.1909   -0.7301    1.7419 C   0  0  0  0  0  0  0  0  0  0  0  0
   -7.1105   -0.5785    2.7289 O   0  0  0  0  0  0  0  0  0  0  0  0
   -6.6587   -0.5470    4.0628 C   0  0  0  0  0  0  0  0  0  0  0  0
   -6.7189   -0.6953    0.4243 C   0  0  0  0  0  0  0  0  0  0  0  0
   -5.9156   -0.8507   -0.6635 C   0  0  0  0  0  0  0  0  0  0  0  0
   -3.6321   -1.3064   -2.8911 C   0  0  0  0  0  0  0  0  0  0  0  0
   -2.3076   -0.6839   -3.8373 S   0  0  0  0  0  0  0  0  0  0  0  0
   -3.0447   -1.1306   -5.3442 C   0  0  0  0  0  0  0  0  0  0  0  0
   -4.3017   -1.7095   -5.1169 C   0  0  0  0  0  0  0  0  0  0  0  0
   -4.6048   -1.8684   -3.7289 C   0  0  0  0  0  0  0  0  0  0  0  0
   -5.7519   -2.5923   -3.3421 C   0  0  0  0  0  0  0  0  0  0  0  0
   -6.6443   -3.0016   -4.2995 C   0  0  0  0  0  0  0  0  0  0  0  0
   -7.7860   -3.7002   -4.0581 O   0  0  0  0  0  0  0  0  0  0  0  0
   -8.0993   -4.0306   -2.7269 C   0  0  0  0  0  0  0  0  0  0  0  0
   -6.4274   -2.6783   -5.6654 C   0  0  0  0  0  0  0  0  0  0  0  0
   -5.2831   -2.0624   -6.0690 C   0  0  0  0  0  0  0  0  0  0  0  0
   -2.3412   -0.8937   -6.5464 C   0  0  0  0  0  0  0  0  0  0  0  0
   -1.2423    0.4516   -6.6254 S   0  0  0  0  0  0  0  0  0  0  0  0
   -0.7842    0.1162   -8.2654 C   0  0  0  0  0  0  0  0  0  0  0  0
   -1.4443   -1.0371   -8.7238 C   0  0  0  0  0  0  0  0  0  0  0  0
   -2.3007   -1.6246   -7.7421 C   0  0  0  0  0  0  0  0  0  0  0  0
   -2.9145   -2.8690   -7.9877 C   0  0  0  0  0  0  0  0  0  0  0  0
   -2.7488   -3.4749   -9.2067 C   0  0  0  0  0  0  0  0  0  0  0  0
   -3.2938   -4.6668   -9.5673 O   0  0  0  0  0  0  0  0  0  0  0  0
   -4.0999   -5.3434   -8.6335 C   0  0  0  0  0  0  0  0  0  0  0  0
   -1.9412   -2.8656  -10.2010 C   0  0  0  0  0  0  0  0  0  0  0  0
   -1.2928   -1.6928   -9.9642 C   0  0  0  0  0  0  0  0  0  0  0  0
    0.1014    0.9800   -8.9514 C   0  0  0  0  0  0  0  0  0  0  0  0
    0.0585    1.1081  -10.6880 S   0  0  0  0  0  0  0  0  0  0  0  0
    1.2601    2.3142  -10.7217 C   0  0  0  0  0  0  0  0  0  0  0  0
    1.7115    2.6288   -9.4586 C   0  0  0  0  0  0  0  0  0  0  0  0
    1.0537    1.8731   -8.4301 C   0  0  0  0  0  0  0  0  0  0  0  0
    1.4473    2.0606   -7.0956 C   0  0  0  0  0  0  0  0  0  0  0  0
    2.4297    2.9737   -6.7850 C   0  0  0  0  0  0  0  0  0  0  0  0
    2.7521    3.0752   -5.4631 O   0  0  0  0  0  0  0  0  0  0  0  0
    3.7256    4.0101   -5.0644 C   0  0  0  0  0  0  0  0  0  0  0  0
    3.0526    3.7386   -7.8025 C   0  0  0  0  0  0  0  0  0  0  0  0
    2.7073    3.5672   -9.1083 C   0  0  0  0  0  0  0  0  0  0  0  0
    5.5229    0.9003   10.9232 H   0  0  0  0  0  0  0  0  0  0  0  0
    8.0512    1.6307    9.9919 H   0  0  0  0  0  0  0  0  0  0  0  0
   10.6486    1.4572    6.3976 H   0  0  0  0  0  0  0  0  0  0  0  0
   10.1670    3.1796    6.4039 H   0  0  0  0  0  0  0  0  0  0  0  0
   11.4948    2.6184    7.4471 H   0  0  0  0  0  0  0  0  0  0  0  0
    8.4352    1.7674    5.7301 H   0  0  0  0  0  0  0  0  0  0  0  0
    6.1293    1.1102    5.4380 H   0  0  0  0  0  0  0  0  0  0  0  0
    1.6803   -0.1603    7.7103 H   0  0  0  0  0  0  0  0  0  0  0  0
   -1.2104   -2.7574   10.3711 H   0  0  0  0  0  0  0  0  0  0  0  0
   -2.8426   -2.0634   10.4267 H   0  0  0  0  0  0  0  0  0  0  0  0
   -2.9279   -4.5495   10.3030 H   0  0  0  0  0  0  0  0  0  0  0  0
   -2.0137   -4.5132    8.7908 H   0  0  0  0  0  0  0  0  0  0  0  0
   -3.6409   -3.8288    8.8562 H   0  0  0  0  0  0  0  0  0  0  0  0
    4.5429    1.6055   -1.9724 H   0  0  0  0  0  0  0  0  0  0  0  0
    3.3077    2.7914   -1.5032 H   0  0  0  0  0  0  0  0  0  0  0  0
    1.5159    1.2056   -2.2213 H   0  0  0  0  0  0  0  0  0  0  0  0
    2.7468    0.0433   -2.7217 H   0  0  0  0  0  0  0  0  0  0  0  0
    2.6001    1.5921   -3.5597 H   0  0  0  0  0  0  0  0  0  0  0  0
    0.1093   -0.4855    0.7553 H   0  0  0  0  0  0  0  0  0  0  0  0
   -4.4129   -0.8568    2.9267 H   0  0  0  0  0  0  0  0  0  0  0  0
   -6.1695   -1.4852    4.3424 H   0  0  0  0  0  0  0  0  0  0  0  0
   -5.9671    0.2839    4.2321 H   0  0  0  0  0  0  0  0  0  0  0  0
   -7.5492   -0.4066    4.6730 H   0  0  0  0  0  0  0  0  0  0  0  0
   -7.7779   -0.5203    0.3189 H   0  0  0  0  0  0  0  0  0  0  0  0
   -6.3227   -0.7692   -1.6586 H   0  0  0  0  0  0  0  0  0  0  0  0
   -5.8912   -2.8217   -2.2995 H   0  0  0  0  0  0  0  0  0  0  0  0
   -9.0477   -4.5634   -2.7704 H   0  0  0  0  0  0  0  0  0  0  0  0
   -7.3378   -4.6809   -2.2848 H   0  0  0  0  0  0  0  0  0  0  0  0
   -8.2129   -3.1357   -2.1066 H   0  0  0  0  0  0  0  0  0  0  0  0
   -7.1975   -2.9524   -6.3687 H   0  0  0  0  0  0  0  0  0  0  0  0
   -5.1285   -1.8153   -7.1075 H   0  0  0  0  0  0  0  0  0  0  0  0
   -3.4745   -3.3341   -7.1947 H   0  0  0  0  0  0  0  0  0  0  0  0
   -4.9648   -4.7411   -8.3372 H   0  0  0  0  0  0  0  0  0  0  0  0
   -4.4421   -6.2455   -9.1377 H   0  0  0  0  0  0  0  0  0  0  0  0
   -3.5316   -5.6207   -7.7398 H   0  0  0  0  0  0  0  0  0  0  0  0
   -1.8344   -3.3838  -11.1404 H   0  0  0  0  0  0  0  0  0  0  0  0
   -0.6464   -1.2770  -10.7193 H   0  0  0  0  0  0  0  0  0  0  0  0
    1.5782    2.7246  -11.6588 H   0  0  0  0  0  0  0  0  0  0  0  0
    1.0059    1.4923   -6.2941 H   0  0  0  0  0  0  0  0  0  0  0  0
    3.7904    3.9212   -3.9810 H   0  0  0  0  0  0  0  0  0  0  0  0
    3.4340    5.0328   -5.3234 H   0  0  0  0  0  0  0  0  0  0  0  0
    4.7043    3.7864   -5.5012 H   0  0  0  0  0  0  0  0  0  0  0  0
    3.8161    4.4562   -7.5480 H   0  0  0  0  0  0  0  0  0  0  0  0
    3.1898    4.1367   -9.8880 H   0  0  0  0  0  0  0  0  0  0  0  0
  1  2  1  0  0  0  0
  2  3  1  0  0  0  0
  3  4  2  0  0  0  0
  4  5  1  0  0  0  0
  5  6  1  0  0  0  0
  6  7  2  0  0  0  0
  7  8  1  0  0  0  0
  8  9  1  0  0  0  0
  7 10  1  0  0  0  0
 10 11  2  0  0  0  0
  3 12  1  0  0  0  0
 12 13  2  0  0  0  0
 13 14  1  0  0  0  0
 14 15  2  0  0  0  0
 15 16  1  0  0  0  0
 16 17  1  0  0  0  0
 17 18  1  0  0  0  0
 18 19  1  0  0  0  0
 19 20  1  0  0  0  0
 18 21  2  0  0  0  0
 21 22  1  0  0  0  0
 21 23  1  0  0  0  0
 23 24  1  0  0  0  0
 15 25  1  0  0  0  0
 25 26  2  0  0  0  0
 26 27  1  0  0  0  0
 27 28  1  0  0  0  0
 28 29  1  0  0  0  0
 29 30  1  0  0  0  0
 30 31  1  0  0  0  0
 31 32  1  0  0  0  0
 30 33  2  0  0  0  0
 33 34  1  0  0  0  0
 34 35  1  0  0  0  0
 33 36  1  0  0  0  0
 27 37  2  0  0  0  0
 37 38  1  0  0  0  0
 26 39  1  0  0  0  0
 39 40  2  0  0  0  0
 40 41  1  0  0  0  0
 40 42  1  0  0  0  0
 42 43  1  0  0  0  0
 43 44  1  0  0  0  0
 44 45  2  0  0  0  0
 45 46  1  0  0  0  0
 46 47  1  0  0  0  0
 47 48  2  0  0  0  0
 48 49  1  0  0  0  0
 49 50  1  0  0  0  0
 48 51  1  0  0  0  0
 51 52  2  0  0  0  0
 44 53  1  0  0  0  0
 53 54  1  0  0  0  0
 54 55  1  0  0  0  0
 55 56  2  0  0  0  0
 56 57  1  0  0  0  0
 57 58  1  0  0  0  0
 58 59  2  0  0  0  0
 59 60  1  0  0  0  0
 60 61  1  0  0  0  0
 59 62  1  0  0  0  0
 62 63  2  0  0  0  0
 55 64  1  0  0  0  0
 64 65  1  0  0  0  0
 65 66  1  0  0  0  0
 66 67  2  0  0  0  0
 67 68  1  0  0  0  0
 68 69  1  0  0  0  0
 69 70  2  0  0  0  0
 70 71  1  0  0  0  0
 71 72  1  0  0  0  0
 70 73  1  0  0  0  0
 73 74  2  0  0  0  0
 66 75  1  0  0  0  0
 75 76  1  0  0  0  0
 76 77  1  0  0  0  0
 77 78  2  0  0  0  0
 78 79  1  0  0  0  0
 79 80  1  0  0  0  0
 80 81  2  0  0  0  0
 81 82  1  0  0  0  0
 82 83  1  0  0  0  0
 81 84  1  0  0  0  0
 84 85  2  0  0  0  0
  5  1  2  0  0  0  0
 38 12  1  0  0  0  0
 46 42  2  0  0  0  0
 57 53  2  0  0  0  0
 68 64  2  0  0  0  0
 79 75  2  0  0  0  0
 11  4  1  0  0  0  0
 37 14  1  0  0  0  0
 52 45  1  0  0  0  0
 63 56  1  0  0  0  0
 74 67  1  0  0  0  0
 85 78  1  0  0  0  0
 23 16  2  0  0  0  0
 41 25  1  0  0  0  0
 34 28  2  0  0  0  0
  1 86  1  0  0  0  0
  6 87  1  0  0  0  0
  9 88  1  0  0  0  0
  9 89  1  0  0  0  0
  9 90  1  0  0  0  0
 10 91  1  0  0  0  0
 11 92  1  0  0  0  0
 13 93  1  0  0  0  0
 19 94  1  0  0  0  0
 19 95  1  0  0  0  0
 20 96  1  0  0  0  0
 20 97  1  0  0  0  0
 20 98  1  0  0  0  0
 31 99  1  0  0  0  0
 31100  1  0  0  0  0
 32101  1  0  0  0  0
 32102  1  0  0  0  0
 32103  1  0  0  0  0
 39104  1  0  0  0  0
 47105  1  0  0  0  0
 50106  1  0  0  0  0
 50107  1  0  0  0  0
 50108  1  0  0  0  0
 51109  1  0  0  0  0
 52110  1  0  0  0  0
 58111  1  0  0  0  0
 61112  1  0  0  0  0
 61113  1  0  0  0  0
 61114  1  0  0  0  0
 62115  1  0  0  0  0
 63116  1  0  0  0  0
 69117  1  0  0  0  0
 72118  1  0  0  0  0
 72119  1  0  0  0  0
 72120  1  0  0  0  0
 73121  1  0  0  0  0
 74122  1  0  0  0  0
 77123  1  0  0  0  0
 80124  1  0  0  0  0
 83125  1  0  0  0  0
 83126  1  0  0  0  0
 83127  1  0  0  0  0
 84128  1  0  0  0  0
 85129  1  0  0  0  0
M  END
