129

N          3.18480        0.25980       -2.69950
C          4.14020       -0.79980       -2.49230
C          4.51630       -1.61320       -3.71700
S          5.40690       -3.05090       -3.00920
C          4.66930       -2.90570       -1.43380
S          5.08930       -3.77100       -0.13040
C          3.59230       -1.85310       -1.50920
N          3.17130       -1.24530       -0.27880
C          3.41320        0.17350       -0.18830
C          2.87610        0.92240       -1.42650
C          2.24780       -1.85190        0.52080
C          1.80390       -3.12030        0.41320
C          0.86350       -3.71130        1.29780
S          0.13230       -2.81360        2.59090
C         -0.80710       -4.20450        3.13210
C         -0.56310       -5.28830        2.31960
C          0.38840       -5.02050        1.28230
C          0.75820       -6.05310        0.38960
C          0.19610       -7.29150        0.52560
O          0.46520       -8.37100       -0.26240
C          1.41420       -8.22490       -1.28930
C         -0.75710       -7.54950        1.55510
C         -1.12930       -6.58480        2.43000
N         -1.75770       -4.14000        4.14580
C         -3.03890       -3.57370        3.76190
C         -3.49700       -3.88460        2.34790
S         -4.88090       -2.72280        2.07560
C         -4.32320       -1.57890        3.26830
S         -5.12260       -0.22240        3.65860
C         -3.00630       -2.03690        3.83260
N         -2.70710       -1.58240        5.16610
C         -2.30600       -2.64250        6.07140
C         -1.28070       -3.57470        5.41550
C         -2.18910       -0.32060        5.35110
C         -2.01290        0.62260        4.42820
N         -1.58670        1.92530        4.81340
C         -2.66530        2.89020        4.87890
C         -3.84160        2.58730        5.78620
S         -5.07040        3.86090        5.29120
C         -4.39040        4.09750        3.70000
S         -4.83260        5.24320        2.64490
C         -3.32150        3.06520        3.49340
N         -2.33500        3.32130        2.48280
C         -1.00830        3.58030        2.99350
C         -0.52820        2.46120        3.95080
C         -2.49710        2.81200        1.22110
C         -3.60730        2.29430        0.68650
N         -3.67450        1.77300       -0.63960
C         -2.95210        0.54820       -0.91820
C         -2.65590       -0.33100        0.28200
S         -1.48070       -1.57760       -0.35260
C         -0.93980       -0.58200       -1.66580
S          0.13860       -1.07570       -2.77430
C         -1.59030        0.78000       -1.59780
N         -1.76200        1.42360       -2.86710
C         -3.04000        2.10940       -3.00690
C         -3.47280        2.76590       -1.69350
C         -0.61350        2.02070       -3.41000
C         -0.52890        2.40470       -4.68450
N          0.56550        3.03140       -5.27840
C          1.86560        2.78020       -4.70340
C          2.44030        3.90780       -3.85000
S          4.19390        3.42580       -3.66060
C          4.22210        2.39990       -5.07540
S          5.52140        1.54350       -5.52680
C          2.91950        2.54940       -5.80110
N          2.47330        1.52040       -6.69930
C          1.25870        1.92290       -7.39850
C          0.57150        3.13050       -6.72450
C          2.61030        0.20010       -6.30830
C          2.10080       -0.86060       -6.92250
H          2.33520       -0.14580       -3.09110
H          5.05480       -0.34940       -2.08850
H          5.18710       -1.09640       -4.39920
H          3.63790       -1.97360       -4.25380
H          2.71390       -2.32690       -1.99060
H          2.92760        0.56140        0.70810
H          4.48920        0.35390       -0.08630
H          1.79160        1.02840       -1.33930
H          3.32590        1.92240       -1.44510
H          1.88430       -1.23020        1.32850
H          2.17740       -3.77010       -0.36100
H          1.48610       -5.84240       -0.37570
H          1.48360       -9.19930       -1.77020
H          2.39550       -7.94530       -0.89230
H          1.09610       -7.47940       -2.02590
H         -1.16140       -8.54800        1.60820
H         -1.83990       -6.77560        3.21910
H         -3.79630       -3.95200        4.45950
H         -3.86070       -4.90090        2.22240
H         -2.72420       -3.67850        1.60630
H         -2.21880       -1.70200        3.12770
H         -1.85950       -2.19470        6.95920
H         -3.18800       -3.20810        6.39030
H         -0.35860       -3.00840        5.23670
H         -1.04970       -4.40430        6.09180
H         -1.96520       -0.08160        6.38050
H         -2.21250        0.45290        3.37400
H         -2.22570        3.84080        5.20480
H         -4.26270        1.59990        5.59960
H         -3.62640        2.71440        6.84360
H         -3.84460        2.11880        3.26120
H         -1.01520        4.54290        3.51600
H         -0.31220        3.66890        2.15820
H          0.26490        2.86250        4.59180
H         -0.10840        1.63080        3.37730
H         -1.59640        2.88060        0.62190
H         -4.54660        2.24740        1.21690
H         -3.56270       -0.04240       -1.61880
H         -3.54180       -0.83400        0.66050
H         -2.16790        0.22150        1.08580
H         -0.94880        1.37940       -0.91300
H         -2.93140        2.87950       -3.77000
H         -3.80500        1.40080       -3.34040
H         -2.71040        3.50690       -1.40730
H         -4.41800        3.29840       -1.83520
H          0.22270        2.10960       -2.72840
H         -1.38380        2.29500       -5.33370
H          1.83500        1.86530       -4.09590
H          2.38630        4.87000       -4.35980
H          1.99280        3.99140       -2.86320
H          3.03300        3.47020       -6.39710
H          1.49300        2.17350       -8.44010
H          0.56900        1.07550       -7.39150
H         -0.45800        3.19620       -7.07720
H          1.07010        4.06380       -7.00710
H          3.24200        0.07340       -5.44240
H          1.49850       -0.80230       -7.81090
H          2.29870       -1.84750       -6.54840
