94

C          3.81710        0.44150       -1.43080
O          2.63810        1.00080       -1.14470
C          2.62240        2.25590       -1.64260
C          3.83560        2.50380       -2.26910
C          4.61130        1.31450       -2.12800
C          5.90250        1.05720       -2.62520
N          6.94130        0.81770       -3.04110
C          4.24790        3.76720       -2.93250
F          3.30860        4.21690       -3.78940
F          4.44640        4.76390       -2.05110
F          5.37450        3.64140       -3.63800
C          1.45820        3.07890       -1.60190
C          0.25820        2.82100       -1.02300
C         -0.14810        1.80700       -0.12140
S          0.92540        0.93580        0.91940
C         -0.37430        0.21990        1.80440
C         -1.61490        0.55300        1.24840
C         -1.48780        1.48030        0.16860
C         -2.62640        1.93190       -0.51960
C         -3.86810        1.45570       -0.15710
O         -5.02910        1.80180       -0.72720
C         -5.03370        2.76140       -1.76640
C         -3.98140        0.48480        0.87840
C         -2.89310        0.04110        1.56240
C         -0.06530       -0.55990        2.95280
O          1.16950       -1.11520        3.05250
C          1.24070       -1.80540        4.20500
C          0.06030       -1.67530        4.89540
C         -0.79780       -0.86150        4.09710
C         -2.06090       -0.39760        4.49210
N         -3.07260       -0.00800        4.86440
C         -0.27880       -2.31170        6.19660
F          0.80500       -2.48800        6.97170
F         -1.15940       -1.61480        6.91160
F         -0.81180       -3.54250        6.01790
C          2.41280       -2.59690        4.57960
C          2.34740       -3.93280        4.68170
C          1.20610       -4.66910        4.20020
O          0.44080       -4.08660        3.26130
C         -0.58680       -4.89920        2.94500
C         -0.49090       -6.05200        3.70390
C          0.68090       -5.91630        4.50270
C          1.20340       -6.84700        5.41860
N          1.65430       -7.60000        6.15360
C         -1.37410       -7.25340        3.69140
F         -1.76670       -7.60850        4.91850
F         -0.74800       -8.32040        3.16190
F         -2.48170       -7.06410        2.96250
C         -1.48070       -4.42760        1.92770
C         -1.07620       -3.40520        1.14260
C         -1.80410       -2.74580        0.11560
O         -1.11750       -1.87680       -0.65580
C         -1.95930       -1.31340       -1.54440
C         -3.23530       -1.81650       -1.34080
C         -3.13870       -2.75400       -0.27920
C         -4.17680       -3.52370        0.27090
N         -5.01700       -4.15880        0.71970
C         -4.48740       -1.51780       -2.09270
F         -4.75270       -2.46340       -3.01230
F         -4.42440       -0.35600       -2.75910
F         -5.55310       -1.44910       -1.29120
C         -1.44890       -0.38510       -2.50110
C         -0.12370       -0.21060       -2.69590
C          0.43400        0.68770       -3.65030
O          1.72640        0.54910       -4.00760
C          2.03410        1.47320       -4.94180
C          0.91480        2.24660       -5.19830
C         -0.12020        1.74930       -4.35880
C         -1.40400        2.28010       -4.16950
N         -2.43500        2.72920       -3.94710
C          0.74670        3.33360       -6.20480
F         -0.53690        3.67580       -6.36080
F          1.19160        2.96360       -7.41910
F          1.40390        4.45950       -5.88810
C          3.38630        1.45360       -5.44150
C          3.97150        2.38760       -6.18590
H          3.99510       -0.56260       -1.10070
H          1.54720        3.99070       -2.17310
H         -0.53160        3.52230       -1.26170
H         -2.51600        2.62430       -1.33660
H         -6.07630        2.86470       -2.05850
H         -4.44490        2.42850       -2.62390
H         -4.65550        3.72430       -1.41270
H         -4.96700        0.10520        1.09480
H         -3.00340       -0.71300        2.32340
H          3.31350       -2.06070        4.83830
H          3.16030       -4.50710        5.09830
H         -2.44010       -4.90560        1.81890
H         -0.07070       -3.02150        1.25990
H         -2.17260        0.15390       -3.08970
H          0.59030       -0.80600       -2.14450
H          3.93980        0.57750       -5.12740
H          3.47830        3.29010       -6.49590
H          4.99720        2.27350       -6.48890
