104

C          5.92270        6.12900        4.68810
S          6.98420        7.08020        3.72490
C          6.31390        6.47830        2.25290
C          5.32280        5.59010        2.50810
C          5.08690        5.37940        3.91260
C          4.04010        4.44020        4.09550
C          3.50290        3.96820        2.90600
S          4.27080        4.64270        1.47850
C          2.47220        3.04170        3.07470
C          2.21580        2.78980        4.40790
S          3.26970        3.72060        5.45680
C          1.27100        1.89250        4.98060
C          0.32920        1.25530        4.24880
C         -0.58320        0.27150        4.69210
S         -0.67330       -0.41820        6.29340
C         -1.86600       -1.57780        5.81850
C         -2.18720       -1.44160        4.50630
C         -1.47790       -0.38110        3.86100
C         -1.81720       -0.30570        2.49860
C         -2.71230       -1.28570        2.08570
S         -3.23740       -2.31980        3.40540
C         -2.98190       -1.25180        0.71550
C         -2.31250       -0.22380        0.08270
S         -1.34220        0.71660        1.19970
C         -2.27140        0.06720       -1.30420
C         -1.63640        1.13910       -1.82950
C         -1.44070        1.36570       -3.21560
S         -1.11930        2.98330       -3.79500
C         -0.92780        2.45540       -5.42420
C         -1.09460        1.11220       -5.51730
C         -1.39650        0.46710       -4.27020
C         -1.47300       -0.93260       -4.45550
C         -1.24150       -1.33440       -5.76830
S         -0.94270        0.00140       -6.86140
C         -1.30390       -2.71180       -5.96160
C         -1.58600       -3.40050       -4.79260
S         -1.76620       -2.30220       -3.44270
C         -1.82820       -4.79820       -4.74820
C         -2.19680       -5.64590       -3.75130
C         -2.28720       -5.52860       -2.34100
S         -1.32670       -4.47530       -1.35710
C         -1.88530       -5.16740        0.13560
C         -2.84850       -6.16190       -0.12590
C         -3.04780       -6.38360       -1.52120
C         -3.95930       -7.36070       -1.96640
C         -4.65900       -8.10320       -1.04880
O         -5.55000       -9.08440       -1.34520
C         -5.76830       -9.40910       -2.69630
C         -4.49120       -7.85410        0.33610
C         -3.61820       -6.91210        0.78740
C         -1.31570       -4.76810        1.36680
S         -1.66520       -5.65690        2.84220
C         -0.61840       -4.68600        3.79960
C         -0.03040       -3.73100        3.04100
C         -0.39970       -3.75370        1.65160
C          0.26370       -2.70260        0.97580
C          1.06510       -1.91940        1.80800
S          1.09430       -2.46280        3.46710
C          1.68260       -0.84290        1.17590
C          1.38010       -0.79730       -0.16910
S          0.32440       -2.11010       -0.64410
C          1.78800        0.18290       -1.10730
C          1.58430        0.09400       -2.44030
C          1.92630        1.11520       -3.36520
S          2.23340        0.71340       -5.03740
C          2.55480        2.35160       -5.46140
C          2.42500        3.16330       -4.38100
C          2.06630        2.47940       -3.17170
C          1.85880        3.41710       -2.12990
C          2.07270        4.73450       -2.51520
S          2.55420        4.89840       -4.19090
C          1.83840        5.67750       -1.50840
C          1.42280        5.09000       -0.33930
S          1.32620        3.34940       -0.49160
C          1.08480        5.68530        0.92480
C          1.24620        6.96920        1.23510
H          5.97770        6.17820        5.75620
H          6.69520        6.81700        1.31190
H          1.95150        2.57070        2.26160
H          1.33480        1.72120        6.04640
H          0.25150        1.46960        3.19040
H         -2.24110       -2.27570        6.53860
H         -3.62020       -1.94460        0.19910
H         -2.77580       -0.63830       -1.94610
H         -1.23560        1.89470       -1.16470
H         -0.70080        3.16330       -6.19450
H         -1.16000       -3.19580       -6.91010
H         -1.78230       -5.24180       -5.73670
H         -2.47900       -6.63550       -4.09400
H         -4.10000       -7.50050       -3.02530
H         -6.48950      -10.22450       -2.69180
H         -6.18370       -8.56150       -3.25100
H         -4.84570       -9.74410       -3.18140
H         -5.08780       -8.43480        1.02100
H         -3.53850       -6.73240        1.84560
H         -0.51560       -4.87560        4.84780
H          2.31780       -0.13190        1.67130
H          2.30810        1.03530       -0.69610
H          1.16520       -0.81420       -2.85440
H          2.81360        2.60420       -6.46890
H          1.95890        6.73620       -1.63930
H          0.68600        4.99890        1.66100
H          0.97720        7.34600        2.20590
H          1.65260        7.68070        0.53770
