
  xtb     03012218553D
 energy: -243.859084625003 gnorm: 0.000163036333 xtb: 6.4.1 (unknown)
159175  0     0  0            999 V2000
   -2.5900    8.5566   16.7463 C   0  0  0  0  0  0  0  0  0  0  0  0
   -1.8165    7.4548   16.6900 C   0  0  0  0  0  0  0  0  0  0  0  0
   -2.1604    6.5832   15.6121 C   0  0  0  0  0  0  0  0  0  0  0  0
   -1.5729    5.3653   15.2556 C   0  0  0  0  0  0  0  0  0  0  0  0
   -0.4444    4.7616   16.0368 C   0  0  0  0  0  0  0  0  0  0  0  0
   -0.9761    3.9623   17.2278 C   0  0  0  0  0  0  0  0  0  0  0  0
   -2.1179    4.7193   14.1609 C   0  0  0  0  0  0  0  0  0  0  0  0
   -3.1993    5.2336   13.4020 C   0  0  0  0  0  0  0  0  0  0  0  0
   -3.7771    6.4607   13.7503 C   0  0  0  0  0  0  0  0  0  0  0  0
   -4.9400    7.0364   12.9993 C   0  0  0  0  0  0  0  0  0  0  0  0
   -6.2575    6.4385   13.4962 C   0  0  0  0  0  0  0  0  0  0  0  0
   -3.2423    7.0968   14.8557 C   0  0  0  0  0  0  0  0  0  0  0  0
   -3.7917    8.6247   15.5031 S   0  0  0  0  0  0  0  0  0  0  0  0
   -3.5431    4.3729   12.3267 C   0  0  0  0  0  0  0  0  0  0  0  0
   -2.7716    3.2508   12.2515 C   0  0  0  0  0  0  0  0  0  0  0  0
   -1.5714    3.1893   13.5246 S   0  0  0  0  0  0  0  0  0  0  0  0
   -2.8313    2.2126   11.2709 C   0  0  0  0  0  0  0  0  0  0  0  0
   -3.6882    2.1116   10.2141 C   0  0  0  0  0  0  0  0  0  0  0  0
   -3.4381    0.9925    9.3796 C   0  0  0  0  0  0  0  0  0  0  0  0
   -4.0968    0.6284    8.1977 C   0  0  0  0  0  0  0  0  0  0  0  0
   -5.2391    1.4243    7.6411 C   0  0  0  0  0  0  0  0  0  0  0  0
   -4.7260    2.5848    6.7863 C   0  0  0  0  0  0  0  0  0  0  0  0
   -3.5880   -0.4669    7.5278 C   0  0  0  0  0  0  0  0  0  0  0  0
   -2.4889   -1.2348    7.9898 C   0  0  0  0  0  0  0  0  0  0  0  0
   -1.8524   -0.8913    9.1893 C   0  0  0  0  0  0  0  0  0  0  0  0
   -0.7143   -1.6944    9.7427 C   0  0  0  0  0  0  0  0  0  0  0  0
   -1.2337   -2.9155   10.5037 C   0  0  0  0  0  0  0  0  0  0  0  0
   -2.3434    0.2210    9.8468 C   0  0  0  0  0  0  0  0  0  0  0  0
   -1.6788    0.8954   11.3129 S   0  0  0  0  0  0  0  0  0  0  0  0
   -2.1481   -2.2667    7.0770 C   0  0  0  0  0  0  0  0  0  0  0  0
   -2.9225   -2.2877    5.9563 C   0  0  0  0  0  0  0  0  0  0  0  0
   -4.1691   -1.0541    5.9894 S   0  0  0  0  0  0  0  0  0  0  0  0
   -2.7491   -3.0796    4.7838 C   0  0  0  0  0  0  0  0  0  0  0  0
   -3.4015   -2.9440    3.5951 C   0  0  0  0  0  0  0  0  0  0  0  0
   -2.8707   -3.7479    2.5553 C   0  0  0  0  0  0  0  0  0  0  0  0
   -3.2335   -3.7593    1.2020 C   0  0  0  0  0  0  0  0  0  0  0  0
   -4.3987   -2.9712    0.6852 C   0  0  0  0  0  0  0  0  0  0  0  0
   -5.7095   -3.7182    0.9382 C   0  0  0  0  0  0  0  0  0  0  0  0
   -2.4542   -4.5365    0.3688 C   0  0  0  0  0  0  0  0  0  0  0  0
   -1.3702   -5.3348    0.8166 C   0  0  0  0  0  0  0  0  0  0  0  0
   -1.0453   -5.3675    2.1800 C   0  0  0  0  0  0  0  0  0  0  0  0
    0.1078   -6.1684    2.7066 C   0  0  0  0  0  0  0  0  0  0  0  0
    1.4130   -5.3765    2.6039 C   0  0  0  0  0  0  0  0  0  0  0  0
   -1.7881   -4.5449    3.0053 C   0  0  0  0  0  0  0  0  0  0  0  0
   -1.4752   -4.2826    4.7050 S   0  0  0  0  0  0  0  0  0  0  0  0
   -0.6775   -5.9424   -0.2623 C   0  0  0  0  0  0  0  0  0  0  0  0
   -1.1735   -5.6110   -1.4915 C   0  0  0  0  0  0  0  0  0  0  0  0
   -2.5959   -4.5874   -1.3696 S   0  0  0  0  0  0  0  0  0  0  0  0
   -0.6162   -5.8471   -2.7793 C   0  0  0  0  0  0  0  0  0  0  0  0
   -0.8882   -4.6662   -4.0128 S   0  0  0  0  0  0  0  0  0  0  0  0
    0.2435   -5.3940   -5.0962 C   0  0  0  0  0  0  0  0  0  0  0  0
    0.7578   -6.5752   -4.5499 C   0  0  0  0  0  0  0  0  0  0  0  0
    0.2711   -6.8329   -3.2258 C   0  0  0  0  0  0  0  0  0  0  0  0
    0.6699   -7.9995   -2.5537 C   0  0  0  0  0  0  0  0  0  0  0  0
    1.5337   -8.8834   -3.1581 C   0  0  0  0  0  0  0  0  0  0  0  0
    1.8671   -9.9861   -2.4300 O   0  0  0  0  0  0  0  0  0  0  0  0
    2.7255  -10.9466   -2.9949 C   0  0  0  0  0  0  0  0  0  0  0  0
    2.0041   -8.6320   -4.4691 C   0  0  0  0  0  0  0  0  0  0  0  0
    1.6197   -7.5129   -5.1498 C   0  0  0  0  0  0  0  0  0  0  0  0
    0.5969   -4.6829   -6.2770 C   0  0  0  0  0  0  0  0  0  0  0  0
    1.7687   -4.6981   -6.9803 C   0  0  0  0  0  0  0  0  0  0  0  0
    1.8449   -3.7051   -7.9904 C   0  0  0  0  0  0  0  0  0  0  0  0
    2.9257   -3.4034   -8.8301 C   0  0  0  0  0  0  0  0  0  0  0  0
    4.2089   -4.1782   -8.7895 C   0  0  0  0  0  0  0  0  0  0  0  0
    5.1327   -3.6434   -7.6934 C   0  0  0  0  0  0  0  0  0  0  0  0
    2.7755   -2.3013   -9.6505 C   0  0  0  0  0  0  0  0  0  0  0  0
    1.5968   -1.5144   -9.7057 C   0  0  0  0  0  0  0  0  0  0  0  0
    0.4966   -1.8475   -8.9042 C   0  0  0  0  0  0  0  0  0  0  0  0
   -0.7657   -1.0383   -8.9000 C   0  0  0  0  0  0  0  0  0  0  0  0
   -0.6510    0.1420   -7.9333 C   0  0  0  0  0  0  0  0  0  0  0  0
    0.6637   -2.9222   -8.0538 C   0  0  0  0  0  0  0  0  0  0  0  0
   -0.5082   -3.4557   -6.8767 S   0  0  0  0  0  0  0  0  0  0  0  0
    1.7371   -0.4166  -10.5919 C   0  0  0  0  0  0  0  0  0  0  0  0
    2.9618   -0.3438  -11.1890 C   0  0  0  0  0  0  0  0  0  0  0  0
    4.0076   -1.6639  -10.7096 S   0  0  0  0  0  0  0  0  0  0  0  0
    3.4444    0.6719  -12.0710 C   0  0  0  0  0  0  0  0  0  0  0  0
    2.8130    1.8228  -12.4415 C   0  0  0  0  0  0  0  0  0  0  0  0
    3.5845    2.6486  -13.3005 C   0  0  0  0  0  0  0  0  0  0  0  0
    3.2428    3.8922  -13.8463 C   0  0  0  0  0  0  0  0  0  0  0  0
    1.9072    4.5290  -13.6043 C   0  0  0  0  0  0  0  0  0  0  0  0
    0.8569    3.9717  -14.5670 C   0  0  0  0  0  0  0  0  0  0  0  0
    4.1919    4.4854  -14.6585 C   0  0  0  0  0  0  0  0  0  0  0  0
    5.4571    3.9129  -14.9379 C   0  0  0  0  0  0  0  0  0  0  0  0
    5.8048    2.6781  -14.3811 C   0  0  0  0  0  0  0  0  0  0  0  0
    7.1165    2.0104  -14.6672 C   0  0  0  0  0  0  0  0  0  0  0  0
    7.0393    1.2000  -15.9624 C   0  0  0  0  0  0  0  0  0  0  0  0
    4.8508    2.0764  -13.5807 C   0  0  0  0  0  0  0  0  0  0  0  0
    5.0400    0.5380  -12.7791 S   0  0  0  0  0  0  0  0  0  0  0  0
    6.2300    4.7494  -15.7997 C   0  0  0  0  0  0  0  0  0  0  0  0
    5.5900    5.8819  -16.1504 C   0  0  0  0  0  0  0  0  0  0  0  0
    4.0061    6.0234  -15.4682 S   0  0  0  0  0  0  0  0  0  0  0  0
   -2.5425    9.3618   17.4534 H   0  0  0  0  0  0  0  0  0  0  0  0
   -1.0239    7.2554   17.3884 H   0  0  0  0  0  0  0  0  0  0  0  0
    0.2258    5.5467   16.3908 H   0  0  0  0  0  0  0  0  0  0  0  0
    0.1247    4.0959   15.3838 H   0  0  0  0  0  0  0  0  0  0  0  0
   -0.1523    3.5322   17.7923 H   0  0  0  0  0  0  0  0  0  0  0  0
   -1.5561    4.6028   17.8886 H   0  0  0  0  0  0  0  0  0  0  0  0
   -1.6172    3.1551   16.8812 H   0  0  0  0  0  0  0  0  0  0  0  0
   -4.8271    6.8403   11.9315 H   0  0  0  0  0  0  0  0  0  0  0  0
   -4.9593    8.1186   13.1466 H   0  0  0  0  0  0  0  0  0  0  0  0
   -6.2606    5.3588   13.3638 H   0  0  0  0  0  0  0  0  0  0  0  0
   -6.3919    6.6550   14.5534 H   0  0  0  0  0  0  0  0  0  0  0  0
   -7.0955    6.8609   12.9469 H   0  0  0  0  0  0  0  0  0  0  0  0
   -4.3323    4.5843   11.6290 H   0  0  0  0  0  0  0  0  0  0  0  0
   -4.4664    2.8279   10.0255 H   0  0  0  0  0  0  0  0  0  0  0  0
   -5.8593    0.7713    7.0225 H   0  0  0  0  0  0  0  0  0  0  0  0
   -5.8559    1.8101    8.4544 H   0  0  0  0  0  0  0  0  0  0  0  0
   -4.0953    3.2448    7.3780 H   0  0  0  0  0  0  0  0  0  0  0  0
   -4.1390    2.2050    5.9534 H   0  0  0  0  0  0  0  0  0  0  0  0
   -5.5592    3.1597    6.3892 H   0  0  0  0  0  0  0  0  0  0  0  0
   -0.0594   -2.0198    8.9324 H   0  0  0  0  0  0  0  0  0  0  0  0
   -0.1322   -1.0676   10.4221 H   0  0  0  0  0  0  0  0  0  0  0  0
   -0.4034   -3.4933   10.9023 H   0  0  0  0  0  0  0  0  0  0  0  0
   -1.8660   -2.6012   11.3309 H   0  0  0  0  0  0  0  0  0  0  0  0
   -1.8194   -3.5537    9.8458 H   0  0  0  0  0  0  0  0  0  0  0  0
   -1.3348   -2.9556    7.2212 H   0  0  0  0  0  0  0  0  0  0  0  0
   -4.2130   -2.2501    3.4658 H   0  0  0  0  0  0  0  0  0  0  0  0
   -4.2748   -2.8139   -0.3886 H   0  0  0  0  0  0  0  0  0  0  0  0
   -4.4346   -1.9948    1.1717 H   0  0  0  0  0  0  0  0  0  0  0  0
   -6.5514   -3.1418    0.5626 H   0  0  0  0  0  0  0  0  0  0  0  0
   -5.8510   -3.8895    2.0031 H   0  0  0  0  0  0  0  0  0  0  0  0
   -5.6960   -4.6816    0.4336 H   0  0  0  0  0  0  0  0  0  0  0  0
   -0.0793   -6.4139    3.7547 H   0  0  0  0  0  0  0  0  0  0  0  0
    0.1986   -7.1014    2.1480 H   0  0  0  0  0  0  0  0  0  0  0  0
    2.2433   -5.9654    2.9860 H   0  0  0  0  0  0  0  0  0  0  0  0
    1.6187   -5.1120    1.5691 H   0  0  0  0  0  0  0  0  0  0  0  0
    1.3414   -4.4601    3.1849 H   0  0  0  0  0  0  0  0  0  0  0  0
    0.2121   -6.5307   -0.1362 H   0  0  0  0  0  0  0  0  0  0  0  0
    0.2822   -8.2338   -1.5767 H   0  0  0  0  0  0  0  0  0  0  0  0
    3.7086  -10.5244   -3.2277 H   0  0  0  0  0  0  0  0  0  0  0  0
    2.8393  -11.7185   -2.2352 H   0  0  0  0  0  0  0  0  0  0  0  0
    2.2958  -11.3927   -3.8978 H   0  0  0  0  0  0  0  0  0  0  0  0
    2.6581   -9.3403   -4.9523 H   0  0  0  0  0  0  0  0  0  0  0  0
    1.9506   -7.3605   -6.1647 H   0  0  0  0  0  0  0  0  0  0  0  0
    2.5872   -5.3479   -6.7329 H   0  0  0  0  0  0  0  0  0  0  0  0
    4.7105   -4.0865   -9.7556 H   0  0  0  0  0  0  0  0  0  0  0  0
    4.0003   -5.2347   -8.6122 H   0  0  0  0  0  0  0  0  0  0  0  0
    4.6537   -3.7175   -6.7195 H   0  0  0  0  0  0  0  0  0  0  0  0
    5.3699   -2.5989   -7.8809 H   0  0  0  0  0  0  0  0  0  0  0  0
    6.0604   -4.2102   -7.6709 H   0  0  0  0  0  0  0  0  0  0  0  0
   -1.5956   -1.6763   -8.5876 H   0  0  0  0  0  0  0  0  0  0  0  0
   -0.9769   -0.6720   -9.9060 H   0  0  0  0  0  0  0  0  0  0  0  0
   -1.5693    0.7242   -7.9370 H   0  0  0  0  0  0  0  0  0  0  0  0
   -0.4738   -0.2181   -6.9227 H   0  0  0  0  0  0  0  0  0  0  0  0
    0.1757    0.7896   -8.2175 H   0  0  0  0  0  0  0  0  0  0  0  0
    0.9601    0.3040  -10.7687 H   0  0  0  0  0  0  0  0  0  0  0  0
    1.8268    2.0805  -12.1019 H   0  0  0  0  0  0  0  0  0  0  0  0
    1.5920    4.3521  -12.5744 H   0  0  0  0  0  0  0  0  0  0  0  0
    1.9938    5.6075  -13.7535 H   0  0  0  0  0  0  0  0  0  0  0  0
    0.7567    2.8958  -14.4415 H   0  0  0  0  0  0  0  0  0  0  0  0
   -0.1087    4.4368  -14.3836 H   0  0  0  0  0  0  0  0  0  0  0  0
    1.1479    4.1716  -15.5955 H   0  0  0  0  0  0  0  0  0  0  0  0
    7.9067    2.7585  -14.7481 H   0  0  0  0  0  0  0  0  0  0  0  0
    7.3634    1.3411  -13.8398 H   0  0  0  0  0  0  0  0  0  0  0  0
    7.9936    0.7203  -16.1660 H   0  0  0  0  0  0  0  0  0  0  0  0
    6.2757    0.4302  -15.8775 H   0  0  0  0  0  0  0  0  0  0  0  0
    6.7859    1.8450  -16.8010 H   0  0  0  0  0  0  0  0  0  0  0  0
    7.2205    4.5038  -16.1379 H   0  0  0  0  0  0  0  0  0  0  0  0
    5.9441    6.6717  -16.7842 H   0  0  0  0  0  0  0  0  0  0  0  0
  1  2  2  0  0  0  0
  2  3  1  0  0  0  0
  3  4  2  0  0  0  0
  4  5  1  0  0  0  0
  5  6  1  0  0  0  0
  4  7  1  0  0  0  0
  7  8  2  0  0  0  0
  8  9  1  0  0  0  0
  9 10  1  0  0  0  0
 10 11  1  0  0  0  0
  9 12  2  0  0  0  0
 12 13  1  0  0  0  0
  8 14  1  0  0  0  0
 14 15  2  0  0  0  0
 15 16  1  0  0  0  0
 15 17  1  0  0  0  0
 17 18  2  0  0  0  0
 18 19  1  0  0  0  0
 19 20  2  0  0  0  0
 20 21  1  0  0  0  0
 21 22  1  0  0  0  0
 20 23  1  0  0  0  0
 23 24  2  0  0  0  0
 24 25  1  0  0  0  0
 25 26  1  0  0  0  0
 26 27  1  0  0  0  0
 25 28  2  0  0  0  0
 28 29  1  0  0  0  0
 24 30  1  0  0  0  0
 30 31  2  0  0  0  0
 31 32  1  0  0  0  0
 31 33  1  0  0  0  0
 33 34  2  0  0  0  0
 34 35  1  0  0  0  0
 35 36  2  0  0  0  0
 36 37  1  0  0  0  0
 37 38  1  0  0  0  0
 36 39  1  0  0  0  0
 39 40  2  0  0  0  0
 40 41  1  0  0  0  0
 41 42  1  0  0  0  0
 42 43  1  0  0  0  0
 41 44  2  0  0  0  0
 44 45  1  0  0  0  0
 40 46  1  0  0  0  0
 46 47  2  0  0  0  0
 47 48  1  0  0  0  0
 47 49  1  0  0  0  0
 49 50  1  0  0  0  0
 50 51  1  0  0  0  0
 51 52  2  0  0  0  0
 52 53  1  0  0  0  0
 53 54  1  0  0  0  0
 54 55  2  0  0  0  0
 55 56  1  0  0  0  0
 56 57  1  0  0  0  0
 55 58  1  0  0  0  0
 58 59  2  0  0  0  0
 51 60  1  0  0  0  0
 60 61  2  0  0  0  0
 61 62  1  0  0  0  0
 62 63  2  0  0  0  0
 63 64  1  0  0  0  0
 64 65  1  0  0  0  0
 63 66  1  0  0  0  0
 66 67  2  0  0  0  0
 67 68  1  0  0  0  0
 68 69  1  0  0  0  0
 69 70  1  0  0  0  0
 68 71  2  0  0  0  0
 71 72  1  0  0  0  0
 67 73  1  0  0  0  0
 73 74  2  0  0  0  0
 74 75  1  0  0  0  0
 74 76  1  0  0  0  0
 76 77  2  0  0  0  0
 77 78  1  0  0  0  0
 78 79  2  0  0  0  0
 79 80  1  0  0  0  0
 80 81  1  0  0  0  0
 79 82  1  0  0  0  0
 82 83  2  0  0  0  0
 83 84  1  0  0  0  0
 84 85  1  0  0  0  0
 85 86  1  0  0  0  0
 84 87  2  0  0  0  0
 87 88  1  0  0  0  0
 83 89  1  0  0  0  0
 89 90  2  0  0  0  0
 90 91  1  0  0  0  0
 13  1  1  0  0  0  0
 29 17  1  0  0  0  0
 45 33  1  0  0  0  0
 53 49  2  0  0  0  0
 72 60  1  0  0  0  0
 88 76  1  0  0  0  0
 12  3  1  0  0  0  0
 28 19  1  0  0  0  0
 44 35  1  0  0  0  0
 59 52  1  0  0  0  0
 71 62  1  0  0  0  0
 87 78  1  0  0  0  0
 16  7  1  0  0  0  0
 32 23  1  0  0  0  0
 48 39  1  0  0  0  0
 75 66  1  0  0  0  0
 91 82  1  0  0  0  0
  1 92  1  0  0  0  0
  2 93  1  0  0  0  0
  5 94  1  0  0  0  0
  5 95  1  0  0  0  0
  6 96  1  0  0  0  0
  6 97  1  0  0  0  0
  6 98  1  0  0  0  0
 10 99  1  0  0  0  0
 10100  1  0  0  0  0
 11101  1  0  0  0  0
 11102  1  0  0  0  0
 11103  1  0  0  0  0
 14104  1  0  0  0  0
 18105  1  0  0  0  0
 21106  1  0  0  0  0
 21107  1  0  0  0  0
 22108  1  0  0  0  0
 22109  1  0  0  0  0
 22110  1  0  0  0  0
 26111  1  0  0  0  0
 26112  1  0  0  0  0
 27113  1  0  0  0  0
 27114  1  0  0  0  0
 27115  1  0  0  0  0
 30116  1  0  0  0  0
 34117  1  0  0  0  0
 37118  1  0  0  0  0
 37119  1  0  0  0  0
 38120  1  0  0  0  0
 38121  1  0  0  0  0
 38122  1  0  0  0  0
 42123  1  0  0  0  0
 42124  1  0  0  0  0
 43125  1  0  0  0  0
 43126  1  0  0  0  0
 43127  1  0  0  0  0
 46128  1  0  0  0  0
 54129  1  0  0  0  0
 57130  1  0  0  0  0
 57131  1  0  0  0  0
 57132  1  0  0  0  0
 58133  1  0  0  0  0
 59134  1  0  0  0  0
 61135  1  0  0  0  0
 64136  1  0  0  0  0
 64137  1  0  0  0  0
 65138  1  0  0  0  0
 65139  1  0  0  0  0
 65140  1  0  0  0  0
 69141  1  0  0  0  0
 69142  1  0  0  0  0
 70143  1  0  0  0  0
 70144  1  0  0  0  0
 70145  1  0  0  0  0
 73146  1  0  0  0  0
 77147  1  0  0  0  0
 80148  1  0  0  0  0
 80149  1  0  0  0  0
 81150  1  0  0  0  0
 81151  1  0  0  0  0
 81152  1  0  0  0  0
 85153  1  0  0  0  0
 85154  1  0  0  0  0
 86155  1  0  0  0  0
 86156  1  0  0  0  0
 86157  1  0  0  0  0
 89158  1  0  0  0  0
 90159  1  0  0  0  0
M  END
