
  xtb     03022207573D
 energy: -171.923068545578 gnorm: 0.000193043190 xtb: 6.4.1 (unknown)
 94105  0     0  0            999 V2000
   10.6351   -3.9444   -1.3836 C   0  0  0  0  0  0  0  0  0  0  0  0
   11.3638   -3.1659   -2.2962 C   0  0  0  0  0  0  0  0  0  0  0  0
   12.4579   -3.5165   -2.9751 N   0  0  0  0  0  0  0  0  0  0  0  0
   12.9208   -2.2726   -3.8819 S   0  0  0  0  0  0  0  0  0  0  0  0
   11.7674   -1.2295   -3.4678 N   0  0  0  0  0  0  0  0  0  0  0  0
   10.9584   -1.8157   -2.5871 C   0  0  0  0  0  0  0  0  0  0  0  0
    9.8033   -1.2539   -1.9816 C   0  0  0  0  0  0  0  0  0  0  0  0
    9.1385   -2.0570   -1.0737 C   0  0  0  0  0  0  0  0  0  0  0  0
    9.5469   -3.3679   -0.7842 C   0  0  0  0  0  0  0  0  0  0  0  0
    9.4446    0.1093   -2.2957 C   0  0  0  0  0  0  0  0  0  0  0  0
    8.2361    0.7049   -2.2238 C   0  0  0  0  0  0  0  0  0  0  0  0
    6.9494    0.1199   -2.0083 C   0  0  0  0  0  0  0  0  0  0  0  0
    5.7508    1.0545   -1.1765 S   0  0  0  0  0  0  0  0  0  0  0  0
    4.5425   -0.1782   -1.2996 C   0  0  0  0  0  0  0  0  0  0  0  0
    5.0510   -1.2860   -1.9818 C   0  0  0  0  0  0  0  0  0  0  0  0
    6.4092   -1.1084   -2.4049 C   0  0  0  0  0  0  0  0  0  0  0  0
    7.0367   -2.1082   -3.1668 C   0  0  0  0  0  0  0  0  0  0  0  0
    6.3896   -3.2973   -3.4074 C   0  0  0  0  0  0  0  0  0  0  0  0
    7.0812   -4.2154   -4.1378 O   0  0  0  0  0  0  0  0  0  0  0  0
    6.5033   -5.4747   -4.3806 C   0  0  0  0  0  0  0  0  0  0  0  0
    5.0846   -3.5100   -2.9003 C   0  0  0  0  0  0  0  0  0  0  0  0
    4.4262   -2.5263   -2.2225 C   0  0  0  0  0  0  0  0  0  0  0  0
    3.2539    0.0671   -0.7117 C   0  0  0  0  0  0  0  0  0  0  0  0
    2.0366   -0.3719   -1.2961 C   0  0  0  0  0  0  0  0  0  0  0  0
    1.8782   -1.0496   -2.4315 N   0  0  0  0  0  0  0  0  0  0  0  0
    0.3057   -1.2476   -2.7078 S   0  0  0  0  0  0  0  0  0  0  0  0
   -0.2567   -0.4884   -1.4074 N   0  0  0  0  0  0  0  0  0  0  0  0
    0.7710   -0.0314   -0.6957 C   0  0  0  0  0  0  0  0  0  0  0  0
    0.6939    0.7092    0.5132 C   0  0  0  0  0  0  0  0  0  0  0  0
    1.9082    1.1267    1.0384 C   0  0  0  0  0  0  0  0  0  0  0  0
    3.1302    0.8338    0.4402 C   0  0  0  0  0  0  0  0  0  0  0  0
   -0.5931    1.0013    1.0835 C   0  0  0  0  0  0  0  0  0  0  0  0
   -0.8025    1.3638    2.3645 C   0  0  0  0  0  0  0  0  0  0  0  0
   -2.0787    1.6587    2.9540 C   0  0  0  0  0  0  0  0  0  0  0  0
   -3.2686    1.8680    2.2066 C   0  0  0  0  0  0  0  0  0  0  0  0
   -3.3871    1.9074    0.8810 N   0  0  0  0  0  0  0  0  0  0  0  0
   -4.9044    2.2566    0.4946 S   0  0  0  0  0  0  0  0  0  0  0  0
   -5.5031    2.3708    1.9821 N   0  0  0  0  0  0  0  0  0  0  0  0
   -4.5270    2.1292    2.8603 C   0  0  0  0  0  0  0  0  0  0  0  0
   -4.6157    2.1560    4.2736 C   0  0  0  0  0  0  0  0  0  0  0  0
   -3.4203    2.0286    4.9608 C   0  0  0  0  0  0  0  0  0  0  0  0
   -2.2032    1.7823    4.3300 C   0  0  0  0  0  0  0  0  0  0  0  0
   -5.8379    2.3614    5.0214 C   0  0  0  0  0  0  0  0  0  0  0  0
   -7.0759    1.8696    4.8464 C   0  0  0  0  0  0  0  0  0  0  0  0
   -7.6158    0.9057    3.9169 C   0  0  0  0  0  0  0  0  0  0  0  0
   -6.8728   -0.0087    3.1252 C   0  0  0  0  0  0  0  0  0  0  0  0
   -5.5586   -0.2246    3.1352 N   0  0  0  0  0  0  0  0  0  0  0  0
   -5.1949   -1.3456    2.0436 S   0  0  0  0  0  0  0  0  0  0  0  0
   -6.6834   -1.6489    1.5197 N   0  0  0  0  0  0  0  0  0  0  0  0
   -7.5413   -0.8737    2.1841 C   0  0  0  0  0  0  0  0  0  0  0  0
   -8.9537   -0.9108    2.0865 C   0  0  0  0  0  0  0  0  0  0  0  0
   -9.6434   -0.0964    2.9584 C   0  0  0  0  0  0  0  0  0  0  0  0
   -8.9949    0.7941    3.8169 C   0  0  0  0  0  0  0  0  0  0  0  0
   -9.6234   -1.8037    1.1514 C   0  0  0  0  0  0  0  0  0  0  0  0
   -9.2669   -1.9672   -0.1259 C   0  0  0  0  0  0  0  0  0  0  0  0
   -8.2656   -1.1615   -0.8071 C   0  0  0  0  0  0  0  0  0  0  0  0
   -8.1879    0.2377   -0.6017 C   0  0  0  0  0  0  0  0  0  0  0  0
   -8.9925    0.9752    0.1660 N   0  0  0  0  0  0  0  0  0  0  0  0
   -8.5286    2.5057    0.0945 S   0  0  0  0  0  0  0  0  0  0  0  0
   -7.3048    2.3287   -0.9315 N   0  0  0  0  0  0  0  0  0  0  0  0
   -7.1924    1.0387   -1.2626 C   0  0  0  0  0  0  0  0  0  0  0  0
   -6.2431    0.4397   -2.1311 C   0  0  0  0  0  0  0  0  0  0  0  0
   -6.3751   -0.9241   -2.3203 C   0  0  0  0  0  0  0  0  0  0  0  0
   -7.3632   -1.6965   -1.7006 C   0  0  0  0  0  0  0  0  0  0  0  0
   -5.1824    1.1697   -2.7990 C   0  0  0  0  0  0  0  0  0  0  0  0
   -5.0203    2.4893   -2.7994 C   0  0  0  0  0  0  0  0  0  0  0  0
   10.9451   -4.9547   -1.1722 H   0  0  0  0  0  0  0  0  0  0  0  0
    8.2852   -1.6559   -0.5499 H   0  0  0  0  0  0  0  0  0  0  0  0
    8.9748   -3.9341   -0.0637 H   0  0  0  0  0  0  0  0  0  0  0  0
   10.2836    0.7170   -2.6092 H   0  0  0  0  0  0  0  0  0  0  0  0
    8.2141    1.7833   -2.3374 H   0  0  0  0  0  0  0  0  0  0  0  0
    8.0199   -1.9547   -3.5759 H   0  0  0  0  0  0  0  0  0  0  0  0
    6.3004   -6.0125   -3.4487 H   0  0  0  0  0  0  0  0  0  0  0  0
    7.2425   -6.0280   -4.9579 H   0  0  0  0  0  0  0  0  0  0  0  0
    5.5803   -5.3917   -4.9635 H   0  0  0  0  0  0  0  0  0  0  0  0
    4.5892   -4.4538   -3.0646 H   0  0  0  0  0  0  0  0  0  0  0  0
    3.4216   -2.6903   -1.8715 H   0  0  0  0  0  0  0  0  0  0  0  0
    1.9131    1.7246    1.9368 H   0  0  0  0  0  0  0  0  0  0  0  0
    4.0333    1.2087    0.9008 H   0  0  0  0  0  0  0  0  0  0  0  0
   -1.4370    0.8805    0.4203 H   0  0  0  0  0  0  0  0  0  0  0  0
    0.0327    1.4066    3.0532 H   0  0  0  0  0  0  0  0  0  0  0  0
   -3.4399    2.0817    6.0403 H   0  0  0  0  0  0  0  0  0  0  0  0
   -1.3203    1.6621    4.9421 H   0  0  0  0  0  0  0  0  0  0  0  0
   -5.6984    2.9963    5.8909 H   0  0  0  0  0  0  0  0  0  0  0  0
   -7.8272    2.2341    5.5396 H   0  0  0  0  0  0  0  0  0  0  0  0
  -10.7231   -0.1116    2.9421 H   0  0  0  0  0  0  0  0  0  0  0  0
   -9.6061    1.4442    4.4272 H   0  0  0  0  0  0  0  0  0  0  0  0
  -10.4516   -2.3722    1.5547 H   0  0  0  0  0  0  0  0  0  0  0  0
   -9.7488   -2.7286   -0.7254 H   0  0  0  0  0  0  0  0  0  0  0  0
   -5.6775   -1.4209   -2.9797 H   0  0  0  0  0  0  0  0  0  0  0  0
   -7.3940   -2.7578   -1.8986 H   0  0  0  0  0  0  0  0  0  0  0  0
   -4.4854    0.5433   -3.3425 H   0  0  0  0  0  0  0  0  0  0  0  0
   -5.7028    3.1412   -2.2837 H   0  0  0  0  0  0  0  0  0  0  0  0
   -4.2013    2.9490   -3.3256 H   0  0  0  0  0  0  0  0  0  0  0  0
  1  2  1  0  0  0  0
  2  3  2  0  0  0  0
  3  4  1  0  0  0  0
  4  5  1  0  0  0  0
  5  6  2  0  0  0  0
  6  7  1  0  0  0  0
  7  8  2  0  0  0  0
  8  9  1  0  0  0  0
  7 10  1  0  0  0  0
 10 11  2  0  0  0  0
 11 12  1  0  0  0  0
 12 13  1  0  0  0  0
 13 14  1  0  0  0  0
 14 15  2  0  0  0  0
 15 16  1  0  0  0  0
 16 17  1  0  0  0  0
 17 18  2  0  0  0  0
 18 19  1  0  0  0  0
 19 20  1  0  0  0  0
 18 21  1  0  0  0  0
 21 22  2  0  0  0  0
 14 23  1  0  0  0  0
 23 24  1  0  0  0  0
 24 25  2  0  0  0  0
 25 26  1  0  0  0  0
 26 27  1  0  0  0  0
 27 28  2  0  0  0  0
 28 29  1  0  0  0  0
 29 30  2  0  0  0  0
 30 31  1  0  0  0  0
 29 32  1  0  0  0  0
 32 33  2  0  0  0  0
 33 34  1  0  0  0  0
 34 35  1  0  0  0  0
 35 36  2  0  0  0  0
 36 37  1  0  0  0  0
 37 38  1  0  0  0  0
 38 39  2  0  0  0  0
 39 40  1  0  0  0  0
 40 41  2  0  0  0  0
 41 42  1  0  0  0  0
 40 43  1  0  0  0  0
 43 44  2  0  0  0  0
 44 45  1  0  0  0  0
 45 46  1  0  0  0  0
 46 47  2  0  0  0  0
 47 48  1  0  0  0  0
 48 49  1  0  0  0  0
 49 50  2  0  0  0  0
 50 51  1  0  0  0  0
 51 52  2  0  0  0  0
 52 53  1  0  0  0  0
 51 54  1  0  0  0  0
 54 55  2  0  0  0  0
 55 56  1  0  0  0  0
 56 57  1  0  0  0  0
 57 58  2  0  0  0  0
 58 59  1  0  0  0  0
 59 60  1  0  0  0  0
 60 61  2  0  0  0  0
 61 62  1  0  0  0  0
 62 63  2  0  0  0  0
 63 64  1  0  0  0  0
 62 65  1  0  0  0  0
 65 66  2  0  0  0  0
  9  1  2  0  0  0  0
 16 12  2  0  0  0  0
 31 23  2  0  0  0  0
 42 34  2  0  0  0  0
 53 45  2  0  0  0  0
 64 56  2  0  0  0  0
  6  2  1  0  0  0  0
 22 15  1  0  0  0  0
 28 24  1  0  0  0  0
 39 35  1  0  0  0  0
 50 46  1  0  0  0  0
 61 57  1  0  0  0  0
  1 67  1  0  0  0  0
  8 68  1  0  0  0  0
  9 69  1  0  0  0  0
 10 70  1  0  0  0  0
 11 71  1  0  0  0  0
 17 72  1  0  0  0  0
 20 73  1  0  0  0  0
 20 74  1  0  0  0  0
 20 75  1  0  0  0  0
 21 76  1  0  0  0  0
 22 77  1  0  0  0  0
 30 78  1  0  0  0  0
 31 79  1  0  0  0  0
 32 80  1  0  0  0  0
 33 81  1  0  0  0  0
 41 82  1  0  0  0  0
 42 83  1  0  0  0  0
 43 84  1  0  0  0  0
 44 85  1  0  0  0  0
 52 86  1  0  0  0  0
 53 87  1  0  0  0  0
 54 88  1  0  0  0  0
 55 89  1  0  0  0  0
 63 90  1  0  0  0  0
 64 91  1  0  0  0  0
 65 92  1  0  0  0  0
 66 93  1  0  0  0  0
 66 94  1  0  0  0  0
M  END
