
  xtb     03012211313D
 energy: -153.816238251111 gnorm: 0.000332612195 xtb: 6.4.1 (unknown)
 84 95  0     0  0            999 V2000
    6.9784    0.2611    7.3144 C   0  0  0  0  0  0  0  0  0  0  0  0
    5.6921    1.3907    7.2882 S   0  0  0  0  0  0  0  0  0  0  0  0
    4.8547    0.4744    6.0647 C   0  0  0  0  0  0  0  0  0  0  0  0
    5.5736   -0.6619    5.7229 C   0  0  0  0  0  0  0  0  0  0  0  0
    6.7921   -0.7702    6.4423 C   0  0  0  0  0  0  0  0  0  0  0  0
    8.0092   -2.0415    6.3478 S   0  0  0  0  0  0  0  0  0  0  0  0
    7.5205   -2.8680    4.7998 C   0  0  0  0  0  0  0  0  0  0  0  0
    6.0569   -3.2401    4.8348 C   0  0  0  0  0  0  0  0  0  0  0  0
    4.9898   -1.7929    4.5128 S   0  0  0  0  0  0  0  0  0  0  0  0
    3.6151    0.9311    5.5353 C   0  0  0  0  0  0  0  0  0  0  0  0
    2.9328    0.1902    4.1167 S   0  0  0  0  0  0  0  0  0  0  0  0
    1.5691    1.2663    4.1463 C   0  0  0  0  0  0  0  0  0  0  0  0
    1.6669    2.1757    5.1782 C   0  0  0  0  0  0  0  0  0  0  0  0
    2.8111    1.9688    5.9839 C   0  0  0  0  0  0  0  0  0  0  0  0
    3.1977    2.8715    7.4408 S   0  0  0  0  0  0  0  0  0  0  0  0
    1.5689    3.6120    7.7919 C   0  0  0  0  0  0  0  0  0  0  0  0
    1.1304    4.4932    6.6477 C   0  0  0  0  0  0  0  0  0  0  0  0
    0.5023    3.4934    5.2574 S   0  0  0  0  0  0  0  0  0  0  0  0
    0.5325    1.1333    3.1706 C   0  0  0  0  0  0  0  0  0  0  0  0
    0.9365    0.9101    1.4956 S   0  0  0  0  0  0  0  0  0  0  0  0
   -0.7459    0.8494    1.0541 C   0  0  0  0  0  0  0  0  0  0  0  0
   -1.5599    0.9711    2.1617 C   0  0  0  0  0  0  0  0  0  0  0  0
   -0.8323    1.1192    3.3673 C   0  0  0  0  0  0  0  0  0  0  0  0
   -1.4954    1.1589    4.9967 S   0  0  0  0  0  0  0  0  0  0  0  0
   -3.1089    0.3653    4.6955 C   0  0  0  0  0  0  0  0  0  0  0  0
   -3.8955    1.1426    3.6663 C   0  0  0  0  0  0  0  0  0  0  0  0
   -3.3050    0.7961    1.9756 S   0  0  0  0  0  0  0  0  0  0  0  0
   -1.1317    0.6629   -0.3112 C   0  0  0  0  0  0  0  0  0  0  0  0
   -0.3889   -0.5786   -1.2627 S   0  0  0  0  0  0  0  0  0  0  0  0
   -1.3792   -0.2310   -2.6381 C   0  0  0  0  0  0  0  0  0  0  0  0
   -2.2118    0.8573   -2.3889 C   0  0  0  0  0  0  0  0  0  0  0  0
   -2.0731    1.3651   -1.0584 C   0  0  0  0  0  0  0  0  0  0  0  0
   -2.7910    2.5125   -0.6563 C   0  0  0  0  0  0  0  0  0  0  0  0
   -3.6427    3.1119   -1.5437 C   0  0  0  0  0  0  0  0  0  0  0  0
   -4.4094    4.2024   -1.2772 O   0  0  0  0  0  0  0  0  0  0  0  0
   -4.3900    4.7220    0.0296 C   0  0  0  0  0  0  0  0  0  0  0  0
   -3.7581    2.6225   -2.8751 C   0  0  0  0  0  0  0  0  0  0  0  0
   -3.0553    1.5400   -3.2959 C   0  0  0  0  0  0  0  0  0  0  0  0
   -1.2852   -1.0508   -3.8032 C   0  0  0  0  0  0  0  0  0  0  0  0
    0.2646   -1.6007   -4.3722 S   0  0  0  0  0  0  0  0  0  0  0  0
   -0.4795   -2.5039   -5.6580 C   0  0  0  0  0  0  0  0  0  0  0  0
   -1.8483   -2.3509   -5.6563 C   0  0  0  0  0  0  0  0  0  0  0  0
   -2.3092   -1.5505   -4.5819 C   0  0  0  0  0  0  0  0  0  0  0  0
   -3.9946   -1.3049   -4.1357 S   0  0  0  0  0  0  0  0  0  0  0  0
   -4.7305   -2.7077   -5.0366 C   0  0  0  0  0  0  0  0  0  0  0  0
   -4.4959   -2.5565   -6.5213 C   0  0  0  0  0  0  0  0  0  0  0  0
   -2.7927   -3.0268   -6.9780 S   0  0  0  0  0  0  0  0  0  0  0  0
    0.3170   -3.2912   -6.5544 C   0  0  0  0  0  0  0  0  0  0  0  0
    1.7156   -2.6115   -7.3338 S   0  0  0  0  0  0  0  0  0  0  0  0
    2.0238   -4.0923   -8.1391 C   0  0  0  0  0  0  0  0  0  0  0  0
    1.1176   -5.0618   -7.8290 C   0  0  0  0  0  0  0  0  0  0  0  0
    0.1390   -4.6113   -6.9018 C   0  0  0  0  0  0  0  0  0  0  0  0
   -1.1323   -5.5729   -6.1606 S   0  0  0  0  0  0  0  0  0  0  0  0
   -0.5538   -7.2538   -6.5660 C   0  0  0  0  0  0  0  0  0  0  0  0
   -0.3230   -7.4033   -8.0527 C   0  0  0  0  0  0  0  0  0  0  0  0
    1.2692   -6.6648   -8.5435 S   0  0  0  0  0  0  0  0  0  0  0  0
    7.8095    0.4010    7.9748 H   0  0  0  0  0  0  0  0  0  0  0  0
    8.1522   -3.7546    4.7452 H   0  0  0  0  0  0  0  0  0  0  0  0
    7.7431   -2.2092    3.9598 H   0  0  0  0  0  0  0  0  0  0  0  0
    5.7810   -3.6764    5.7952 H   0  0  0  0  0  0  0  0  0  0  0  0
    5.8074   -3.9353    4.0332 H   0  0  0  0  0  0  0  0  0  0  0  0
    0.8493    2.8151    7.9818 H   0  0  0  0  0  0  0  0  0  0  0  0
    1.7226    4.1934    8.7006 H   0  0  0  0  0  0  0  0  0  0  0  0
    0.2879    5.1247    6.9301 H   0  0  0  0  0  0  0  0  0  0  0  0
    1.9521    5.1176    6.2956 H   0  0  0  0  0  0  0  0  0  0  0  0
   -3.6091    0.3789    5.6635 H   0  0  0  0  0  0  0  0  0  0  0  0
   -2.9470   -0.6662    4.3817 H   0  0  0  0  0  0  0  0  0  0  0  0
   -4.9426    0.8388    3.6533 H   0  0  0  0  0  0  0  0  0  0  0  0
   -3.8296    2.2153    3.8535 H   0  0  0  0  0  0  0  0  0  0  0  0
   -2.6293    2.8999    0.3347 H   0  0  0  0  0  0  0  0  0  0  0  0
   -5.1214    5.5285    0.0400 H   0  0  0  0  0  0  0  0  0  0  0  0
   -3.4042    5.1231    0.2873 H   0  0  0  0  0  0  0  0  0  0  0  0
   -4.6744    3.9609    0.7635 H   0  0  0  0  0  0  0  0  0  0  0  0
   -4.4100    3.1628   -3.5429 H   0  0  0  0  0  0  0  0  0  0  0  0
   -3.1146    1.2097   -4.3199 H   0  0  0  0  0  0  0  0  0  0  0  0
   -5.7938   -2.6636   -4.8025 H   0  0  0  0  0  0  0  0  0  0  0  0
   -4.3079   -3.6387   -4.6569 H   0  0  0  0  0  0  0  0  0  0  0  0
   -5.1266   -3.2355   -7.0955 H   0  0  0  0  0  0  0  0  0  0  0  0
   -4.6795   -1.5308   -6.8434 H   0  0  0  0  0  0  0  0  0  0  0  0
    2.8590   -4.1843   -8.8030 H   0  0  0  0  0  0  0  0  0  0  0  0
   -1.3566   -7.9079   -6.2259 H   0  0  0  0  0  0  0  0  0  0  0  0
    0.3534   -7.4658   -5.9991 H   0  0  0  0  0  0  0  0  0  0  0  0
   -0.2403   -8.4528   -8.3356 H   0  0  0  0  0  0  0  0  0  0  0  0
   -1.1227   -6.9326   -8.6259 H   0  0  0  0  0  0  0  0  0  0  0  0
  1  2  1  0  0  0  0
  2  3  1  0  0  0  0
  3  4  2  0  0  0  0
  4  5  1  0  0  0  0
  5  6  1  0  0  0  0
  6  7  1  0  0  0  0
  7  8  1  0  0  0  0
  8  9  1  0  0  0  0
  3 10  1  0  0  0  0
 10 11  1  0  0  0  0
 11 12  1  0  0  0  0
 12 13  2  0  0  0  0
 13 14  1  0  0  0  0
 14 15  1  0  0  0  0
 15 16  1  0  0  0  0
 16 17  1  0  0  0  0
 17 18  1  0  0  0  0
 12 19  1  0  0  0  0
 19 20  1  0  0  0  0
 20 21  1  0  0  0  0
 21 22  2  0  0  0  0
 22 23  1  0  0  0  0
 23 24  1  0  0  0  0
 24 25  1  0  0  0  0
 25 26  1  0  0  0  0
 26 27  1  0  0  0  0
 21 28  1  0  0  0  0
 28 29  1  0  0  0  0
 29 30  1  0  0  0  0
 30 31  2  0  0  0  0
 31 32  1  0  0  0  0
 32 33  1  0  0  0  0
 33 34  2  0  0  0  0
 34 35  1  0  0  0  0
 35 36  1  0  0  0  0
 34 37  1  0  0  0  0
 37 38  2  0  0  0  0
 30 39  1  0  0  0  0
 39 40  1  0  0  0  0
 40 41  1  0  0  0  0
 41 42  2  0  0  0  0
 42 43  1  0  0  0  0
 43 44  1  0  0  0  0
 44 45  1  0  0  0  0
 45 46  1  0  0  0  0
 46 47  1  0  0  0  0
 41 48  1  0  0  0  0
 48 49  1  0  0  0  0
 49 50  1  0  0  0  0
 50 51  2  0  0  0  0
 51 52  1  0  0  0  0
 52 53  1  0  0  0  0
 53 54  1  0  0  0  0
 54 55  1  0  0  0  0
 55 56  1  0  0  0  0
  5  1  2  0  0  0  0
 14 10  2  0  0  0  0
 23 19  2  0  0  0  0
 32 28  2  0  0  0  0
 43 39  2  0  0  0  0
 52 48  2  0  0  0  0
  9  4  1  0  0  0  0
 18 13  1  0  0  0  0
 27 22  1  0  0  0  0
 38 31  1  0  0  0  0
 47 42  1  0  0  0  0
 56 51  1  0  0  0  0
  1 57  1  0  0  0  0
  7 58  1  0  0  0  0
  7 59  1  0  0  0  0
  8 60  1  0  0  0  0
  8 61  1  0  0  0  0
 16 62  1  0  0  0  0
 16 63  1  0  0  0  0
 17 64  1  0  0  0  0
 17 65  1  0  0  0  0
 25 66  1  0  0  0  0
 25 67  1  0  0  0  0
 26 68  1  0  0  0  0
 26 69  1  0  0  0  0
 33 70  1  0  0  0  0
 36 71  1  0  0  0  0
 36 72  1  0  0  0  0
 36 73  1  0  0  0  0
 37 74  1  0  0  0  0
 38 75  1  0  0  0  0
 45 76  1  0  0  0  0
 45 77  1  0  0  0  0
 46 78  1  0  0  0  0
 46 79  1  0  0  0  0
 50 80  1  0  0  0  0
 54 81  1  0  0  0  0
 54 82  1  0  0  0  0
 55 83  1  0  0  0  0
 55 84  1  0  0  0  0
M  END
