
  xtb     03032202433D
 energy: -288.598969023950 gnorm: 0.000701952191 xtb: 6.4.1 (unknown)
154171  0     0  0            999 V2000
    4.0866   -3.2598   13.1203 C   0  0  0  0  0  0  0  0  0  0  0  0
    3.3944   -3.6661   11.6139 S   0  0  0  0  0  0  0  0  0  0  0  0
    2.3087   -2.3118   11.6587 C   0  0  0  0  0  0  0  0  0  0  0  0
    2.5235   -1.5530   12.8092 C   0  0  0  0  0  0  0  0  0  0  0  0
    3.5398   -2.1135   13.6527 C   0  0  0  0  0  0  0  0  0  0  0  0
    3.8959   -1.4776   14.8675 C   0  0  0  0  0  0  0  0  0  0  0  0
    3.2866   -0.3012   15.2024 C   0  0  0  0  0  0  0  0  0  0  0  0
    3.5280    0.4215   16.3302 O   0  0  0  0  0  0  0  0  0  0  0  0
    4.4744   -0.0696   17.2462 C   0  0  0  0  0  0  0  0  0  0  0  0
    2.3239    0.2868   14.3310 C   0  0  0  0  0  0  0  0  0  0  0  0
    1.9506   -0.3113   13.1703 C   0  0  0  0  0  0  0  0  0  0  0  0
    1.3862   -2.1007   10.5960 C   0  0  0  0  0  0  0  0  0  0  0  0
    1.8570   -2.4059    8.9595 S   0  0  0  0  0  0  0  0  0  0  0  0
    0.3180   -1.9319    8.3259 C   0  0  0  0  0  0  0  0  0  0  0  0
   -0.5421   -1.5383    9.3595 C   0  0  0  0  0  0  0  0  0  0  0  0
    0.0558   -1.6660   10.6542 C   0  0  0  0  0  0  0  0  0  0  0  0
   -0.7148   -1.4301   11.8058 C   0  0  0  0  0  0  0  0  0  0  0  0
   -2.0126   -0.9914   11.6869 C   0  0  0  0  0  0  0  0  0  0  0  0
   -2.6913   -0.8005   12.8529 O   0  0  0  0  0  0  0  0  0  0  0  0
   -4.0280   -0.3655   12.8029 C   0  0  0  0  0  0  0  0  0  0  0  0
   -2.5615   -0.7492   10.4050 C   0  0  0  0  0  0  0  0  0  0  0  0
   -1.8501   -1.0211    9.2721 C   0  0  0  0  0  0  0  0  0  0  0  0
    0.0815   -1.9882    6.9278 C   0  0  0  0  0  0  0  0  0  0  0  0
   -1.1127   -2.0565    6.2628 C   0  0  0  0  0  0  0  0  0  0  0  0
   -0.9856   -2.0456    4.8568 C   0  0  0  0  0  0  0  0  0  0  0  0
   -2.0169   -2.0274    3.8975 C   0  0  0  0  0  0  0  0  0  0  0  0
   -3.4140   -1.9941    4.2939 C   0  0  0  0  0  0  0  0  0  0  0  0
   -3.9804   -0.8276    5.4564 S   0  0  0  0  0  0  0  0  0  0  0  0
   -5.6168   -1.3845    5.3467 C   0  0  0  0  0  0  0  0  0  0  0  0
   -6.6848   -0.7867    6.1945 C   0  0  0  0  0  0  0  0  0  0  0  0
   -6.4412   -1.0800    7.6758 C   0  0  0  0  0  0  0  0  0  0  0  0
   -5.7024   -2.4122    4.4576 C   0  0  0  0  0  0  0  0  0  0  0  0
   -7.1606   -3.2337    4.0732 Cl  0  0  0  0  0  0  0  0  0  0  0  0
   -4.4602   -2.7580    3.8576 C   0  0  0  0  0  0  0  0  0  0  0  0
   -4.3153   -4.0767    2.7725 Cl  0  0  0  0  0  0  0  0  0  0  0  0
   -1.6324   -1.9752    2.5664 C   0  0  0  0  0  0  0  0  0  0  0  0
   -0.2780   -1.9695    2.1490 C   0  0  0  0  0  0  0  0  0  0  0  0
    0.7525   -2.0257    3.1083 C   0  0  0  0  0  0  0  0  0  0  0  0
    2.1501   -2.0500    2.7115 C   0  0  0  0  0  0  0  0  0  0  0  0
    2.8142   -0.8649    1.6225 S   0  0  0  0  0  0  0  0  0  0  0  0
    4.3910   -1.5750    1.6792 C   0  0  0  0  0  0  0  0  0  0  0  0
    5.5393   -0.9790    0.9418 C   0  0  0  0  0  0  0  0  0  0  0  0
    6.2787    0.0413    1.8109 C   0  0  0  0  0  0  0  0  0  0  0  0
    4.3903   -2.6579    2.5059 C   0  0  0  0  0  0  0  0  0  0  0  0
    3.1242   -2.9327    3.0894 C   0  0  0  0  0  0  0  0  0  0  0  0
    2.8563   -4.2980    4.0894 Cl  0  0  0  0  0  0  0  0  0  0  0  0
    5.7740   -3.6256    2.8096 Cl  0  0  0  0  0  0  0  0  0  0  0  0
    0.3699   -2.0401    4.4423 C   0  0  0  0  0  0  0  0  0  0  0  0
    1.4399   -1.9796    5.8123 S   0  0  0  0  0  0  0  0  0  0  0  0
   -0.1605   -1.8899    0.7471 C   0  0  0  0  0  0  0  0  0  0  0  0
   -1.3589   -1.8022    0.0839 C   0  0  0  0  0  0  0  0  0  0  0  0
   -2.7072   -1.8412    1.2057 S   0  0  0  0  0  0  0  0  0  0  0  0
   -1.5190   -1.6570   -1.3131 C   0  0  0  0  0  0  0  0  0  0  0  0
   -0.1026   -1.3320   -2.2619 S   0  0  0  0  0  0  0  0  0  0  0  0
   -0.9878   -1.2309   -3.7545 C   0  0  0  0  0  0  0  0  0  0  0  0
   -2.3533   -1.4773   -3.5130 C   0  0  0  0  0  0  0  0  0  0  0  0
   -2.6509   -1.7149   -2.1351 C   0  0  0  0  0  0  0  0  0  0  0  0
   -3.9681   -1.9978   -1.7287 C   0  0  0  0  0  0  0  0  0  0  0  0
   -4.9702   -2.0482   -2.6644 C   0  0  0  0  0  0  0  0  0  0  0  0
   -6.2719   -2.3145   -2.3955 O   0  0  0  0  0  0  0  0  0  0  0  0
   -6.6415   -2.5655   -1.0594 C   0  0  0  0  0  0  0  0  0  0  0  0
   -4.6724   -1.8304   -4.0340 C   0  0  0  0  0  0  0  0  0  0  0  0
   -3.4050   -1.5567   -4.4494 C   0  0  0  0  0  0  0  0  0  0  0  0
   -0.3364   -0.8670   -4.9520 C   0  0  0  0  0  0  0  0  0  0  0  0
   -1.2363   -0.2152   -6.2888 S   0  0  0  0  0  0  0  0  0  0  0  0
    0.1815    0.1117   -7.2225 C   0  0  0  0  0  0  0  0  0  0  0  0
    1.3289   -0.3205   -6.5468 C   0  0  0  0  0  0  0  0  0  0  0  0
    1.0413   -0.8603   -5.2552 C   0  0  0  0  0  0  0  0  0  0  0  0
    2.0922   -1.3436   -4.4543 C   0  0  0  0  0  0  0  0  0  0  0  0
    3.3860   -1.2776   -4.9092 C   0  0  0  0  0  0  0  0  0  0  0  0
    4.4758   -1.6876   -4.2109 O   0  0  0  0  0  0  0  0  0  0  0  0
    4.2896   -2.1901   -2.9090 C   0  0  0  0  0  0  0  0  0  0  0  0
    3.6618   -0.7747   -6.2056 C   0  0  0  0  0  0  0  0  0  0  0  0
    2.6628   -0.3217   -7.0104 C   0  0  0  0  0  0  0  0  0  0  0  0
    0.0502    0.7632   -8.4761 C   0  0  0  0  0  0  0  0  0  0  0  0
    0.9822    1.4790   -9.1757 C   0  0  0  0  0  0  0  0  0  0  0  0
    0.5013    1.9994  -10.4000 C   0  0  0  0  0  0  0  0  0  0  0  0
    1.1997    2.7782  -11.3393 C   0  0  0  0  0  0  0  0  0  0  0  0
    2.6048    3.0937  -11.1491 C   0  0  0  0  0  0  0  0  0  0  0  0
    3.7656    1.8357  -10.8349 S   0  0  0  0  0  0  0  0  0  0  0  0
    5.0821    2.9579  -10.7479 C   0  0  0  0  0  0  0  0  0  0  0  0
    6.4620    2.4921  -10.4390 C   0  0  0  0  0  0  0  0  0  0  0  0
    6.5425    1.8938   -9.0338 C   0  0  0  0  0  0  0  0  0  0  0  0
    4.6310    4.2267  -10.9518 C   0  0  0  0  0  0  0  0  0  0  0  0
    5.6352    5.6184  -10.9328 Cl  0  0  0  0  0  0  0  0  0  0  0  0
    3.2301    4.3083  -11.1845 C   0  0  0  0  0  0  0  0  0  0  0  0
    2.4214    5.8041  -11.3910 Cl  0  0  0  0  0  0  0  0  0  0  0  0
    0.4940    3.1948  -12.4625 C   0  0  0  0  0  0  0  0  0  0  0  0
   -0.8718    2.8874  -12.6699 C   0  0  0  0  0  0  0  0  0  0  0  0
   -1.5785    2.1427  -11.7111 C   0  0  0  0  0  0  0  0  0  0  0  0
   -2.9986    1.8709  -11.8582 C   0  0  0  0  0  0  0  0  0  0  0  0
   -3.6375    0.2602  -11.7303 S   0  0  0  0  0  0  0  0  0  0  0  0
   -5.2625    0.8023  -11.9746 C   0  0  0  0  0  0  0  0  0  0  0  0
   -6.4053   -0.1504  -11.9236 C   0  0  0  0  0  0  0  0  0  0  0  0
   -6.7857   -0.4630  -10.4744 C   0  0  0  0  0  0  0  0  0  0  0  0
   -5.2927    2.1556  -12.1329 C   0  0  0  0  0  0  0  0  0  0  0  0
   -4.0106    2.7649  -12.0729 C   0  0  0  0  0  0  0  0  0  0  0  0
   -3.7890    4.4639  -12.1774 Cl  0  0  0  0  0  0  0  0  0  0  0  0
   -6.7291    3.0598  -12.3854 Cl  0  0  0  0  0  0  0  0  0  0  0  0
   -0.8642    1.6914  -10.6106 C   0  0  0  0  0  0  0  0  0  0  0  0
   -1.5038    0.7416   -9.3007 S   0  0  0  0  0  0  0  0  0  0  0  0
   -1.3320    3.3649  -13.9312 C   0  0  0  0  0  0  0  0  0  0  0  0
   -0.3717    4.0017  -14.6317 C   0  0  0  0  0  0  0  0  0  0  0  0
    1.1513    4.0695  -13.8160 S   0  0  0  0  0  0  0  0  0  0  0  0
    4.8586   -3.8770   13.5340 H   0  0  0  0  0  0  0  0  0  0  0  0
    4.6509   -1.9389   15.4834 H   0  0  0  0  0  0  0  0  0  0  0  0
    4.5015    0.6522   18.0609 H   0  0  0  0  0  0  0  0  0  0  0  0
    4.1817   -1.0491   17.6383 H   0  0  0  0  0  0  0  0  0  0  0  0
    5.4689   -0.1433   16.7938 H   0  0  0  0  0  0  0  0  0  0  0  0
    1.9080    1.2352   14.6314 H   0  0  0  0  0  0  0  0  0  0  0  0
    1.2372    0.1593   12.5127 H   0  0  0  0  0  0  0  0  0  0  0  0
   -0.3047   -1.6012   12.7871 H   0  0  0  0  0  0  0  0  0  0  0  0
   -4.6629   -1.0692   12.2545 H   0  0  0  0  0  0  0  0  0  0  0  0
   -4.1137    0.6299   12.3546 H   0  0  0  0  0  0  0  0  0  0  0  0
   -4.3580   -0.3189   13.8395 H   0  0  0  0  0  0  0  0  0  0  0  0
   -3.5588   -0.3490   10.3126 H   0  0  0  0  0  0  0  0  0  0  0  0
   -2.2845   -0.8150    8.3076 H   0  0  0  0  0  0  0  0  0  0  0  0
   -2.0550   -2.1631    6.7632 H   0  0  0  0  0  0  0  0  0  0  0  0
   -7.6451   -1.2018    5.8850 H   0  0  0  0  0  0  0  0  0  0  0  0
   -6.7092    0.2949    6.0416 H   0  0  0  0  0  0  0  0  0  0  0  0
   -7.2307   -0.6402    8.2793 H   0  0  0  0  0  0  0  0  0  0  0  0
   -6.4248   -2.1530    7.8511 H   0  0  0  0  0  0  0  0  0  0  0  0
   -5.4864   -0.6626    7.9879 H   0  0  0  0  0  0  0  0  0  0  0  0
    5.1751   -0.4902    0.0369 H   0  0  0  0  0  0  0  0  0  0  0  0
    6.2259   -1.7791    0.6577 H   0  0  0  0  0  0  0  0  0  0  0  0
    7.1153    0.4635    1.2608 H   0  0  0  0  0  0  0  0  0  0  0  0
    5.6079    0.8466    2.1002 H   0  0  0  0  0  0  0  0  0  0  0  0
    6.6574   -0.4359    2.7108 H   0  0  0  0  0  0  0  0  0  0  0  0
    0.7788   -1.8967    0.2248 H   0  0  0  0  0  0  0  0  0  0  0  0
   -4.1635   -2.1858   -0.6878 H   0  0  0  0  0  0  0  0  0  0  0  0
   -6.1278   -3.4454   -0.6602 H   0  0  0  0  0  0  0  0  0  0  0  0
   -7.7139   -2.7513   -1.0796 H   0  0  0  0  0  0  0  0  0  0  0  0
   -6.4329   -1.7043   -0.4171 H   0  0  0  0  0  0  0  0  0  0  0  0
   -5.4865   -1.9008   -4.7374 H   0  0  0  0  0  0  0  0  0  0  0  0
   -3.2072   -1.4204   -5.4996 H   0  0  0  0  0  0  0  0  0  0  0  0
    1.8691   -1.7813   -3.4984 H   0  0  0  0  0  0  0  0  0  0  0  0
    3.6945   -3.1086   -2.9146 H   0  0  0  0  0  0  0  0  0  0  0  0
    3.8074   -1.4521   -2.2597 H   0  0  0  0  0  0  0  0  0  0  0  0
    5.2869   -2.4101   -2.5320 H   0  0  0  0  0  0  0  0  0  0  0  0
    4.6883   -0.7843   -6.5356 H   0  0  0  0  0  0  0  0  0  0  0  0
    2.8827    0.0075   -8.0122 H   0  0  0  0  0  0  0  0  0  0  0  0
    1.9669    1.6837   -8.8034 H   0  0  0  0  0  0  0  0  0  0  0  0
    6.7633    1.7366  -11.1688 H   0  0  0  0  0  0  0  0  0  0  0  0
    7.1400    3.3427  -10.5227 H   0  0  0  0  0  0  0  0  0  0  0  0
    7.5582    1.5705   -8.8226 H   0  0  0  0  0  0  0  0  0  0  0  0
    5.8783    1.0365   -8.9516 H   0  0  0  0  0  0  0  0  0  0  0  0
    6.2504    2.6318   -8.2906 H   0  0  0  0  0  0  0  0  0  0  0  0
   -6.1305   -1.0754  -12.4336 H   0  0  0  0  0  0  0  0  0  0  0  0
   -7.2569    0.2955  -12.4403 H   0  0  0  0  0  0  0  0  0  0  0  0
   -7.0787    0.4472   -9.9573 H   0  0  0  0  0  0  0  0  0  0  0  0
   -5.9406   -0.9032   -9.9505 H   0  0  0  0  0  0  0  0  0  0  0  0
   -7.6173   -1.1619  -10.4487 H   0  0  0  0  0  0  0  0  0  0  0  0
   -2.3327    3.2154  -14.2921 H   0  0  0  0  0  0  0  0  0  0  0  0
   -0.4524    4.4517  -15.6019 H   0  0  0  0  0  0  0  0  0  0  0  0
  1  2  1  0  0  0  0
  2  3  1  0  0  0  0
  3  4  2  0  0  0  0
  4  5  1  0  0  0  0
  5  6  1  0  0  0  0
  6  7  2  0  0  0  0
  7  8  1  0  0  0  0
  8  9  1  0  0  0  0
  7 10  1  0  0  0  0
 10 11  2  0  0  0  0
  3 12  1  0  0  0  0
 12 13  1  0  0  0  0
 13 14  1  0  0  0  0
 14 15  2  0  0  0  0
 15 16  1  0  0  0  0
 16 17  1  0  0  0  0
 17 18  2  0  0  0  0
 18 19  1  0  0  0  0
 19 20  1  0  0  0  0
 18 21  1  0  0  0  0
 21 22  2  0  0  0  0
 14 23  1  0  0  0  0
 23 24  2  0  0  0  0
 24 25  1  0  0  0  0
 25 26  2  0  0  0  0
 26 27  1  0  0  0  0
 27 28  1  0  0  0  0
 28 29  1  0  0  0  0
 29 30  1  0  0  0  0
 30 31  1  0  0  0  0
 29 32  2  0  0  0  0
 32 33  1  0  0  0  0
 32 34  1  0  0  0  0
 34 35  1  0  0  0  0
 26 36  1  0  0  0  0
 36 37  2  0  0  0  0
 37 38  1  0  0  0  0
 38 39  1  0  0  0  0
 39 40  1  0  0  0  0
 40 41  1  0  0  0  0
 41 42  1  0  0  0  0
 42 43  1  0  0  0  0
 41 44  2  0  0  0  0
 44 45  1  0  0  0  0
 45 46  1  0  0  0  0
 44 47  1  0  0  0  0
 38 48  2  0  0  0  0
 48 49  1  0  0  0  0
 37 50  1  0  0  0  0
 50 51  2  0  0  0  0
 51 52  1  0  0  0  0
 51 53  1  0  0  0  0
 53 54  1  0  0  0  0
 54 55  1  0  0  0  0
 55 56  2  0  0  0  0
 56 57  1  0  0  0  0
 57 58  1  0  0  0  0
 58 59  2  0  0  0  0
 59 60  1  0  0  0  0
 60 61  1  0  0  0  0
 59 62  1  0  0  0  0
 62 63  2  0  0  0  0
 55 64  1  0  0  0  0
 64 65  1  0  0  0  0
 65 66  1  0  0  0  0
 66 67  2  0  0  0  0
 67 68  1  0  0  0  0
 68 69  1  0  0  0  0
 69 70  2  0  0  0  0
 70 71  1  0  0  0  0
 71 72  1  0  0  0  0
 70 73  1  0  0  0  0
 73 74  2  0  0  0  0
 66 75  1  0  0  0  0
 75 76  2  0  0  0  0
 76 77  1  0  0  0  0
 77 78  2  0  0  0  0
 78 79  1  0  0  0  0
 79 80  1  0  0  0  0
 80 81  1  0  0  0  0
 81 82  1  0  0  0  0
 82 83  1  0  0  0  0
 81 84  2  0  0  0  0
 84 85  1  0  0  0  0
 84 86  1  0  0  0  0
 86 87  1  0  0  0  0
 78 88  1  0  0  0  0
 88 89  2  0  0  0  0
 89 90  1  0  0  0  0
 90 91  1  0  0  0  0
 91 92  1  0  0  0  0
 92 93  1  0  0  0  0
 93 94  1  0  0  0  0
 94 95  1  0  0  0  0
 93 96  2  0  0  0  0
 96 97  1  0  0  0  0
 97 98  1  0  0  0  0
 96 99  1  0  0  0  0
 90100  2  0  0  0  0
100101  1  0  0  0  0
 89102  1  0  0  0  0
102103  2  0  0  0  0
103104  1  0  0  0  0
  5  1  2  0  0  0  0
 16 12  2  0  0  0  0
 49 23  1  0  0  0  0
 57 53  2  0  0  0  0
 68 64  2  0  0  0  0
101 75  1  0  0  0  0
 11  4  1  0  0  0  0
 22 15  1  0  0  0  0
 48 25  1  0  0  0  0
 63 56  1  0  0  0  0
 74 67  1  0  0  0  0
100 77  1  0  0  0  0
 34 27  2  0  0  0  0
 52 36  1  0  0  0  0
 86 79  2  0  0  0  0
104 88  1  0  0  0  0
 45 39  2  0  0  0  0
 97 91  2  0  0  0  0
  1105  1  0  0  0  0
  6106  1  0  0  0  0
  9107  1  0  0  0  0
  9108  1  0  0  0  0
  9109  1  0  0  0  0
 10110  1  0  0  0  0
 11111  1  0  0  0  0
 17112  1  0  0  0  0
 20113  1  0  0  0  0
 20114  1  0  0  0  0
 20115  1  0  0  0  0
 21116  1  0  0  0  0
 22117  1  0  0  0  0
 24118  1  0  0  0  0
 30119  1  0  0  0  0
 30120  1  0  0  0  0
 31121  1  0  0  0  0
 31122  1  0  0  0  0
 31123  1  0  0  0  0
 42124  1  0  0  0  0
 42125  1  0  0  0  0
 43126  1  0  0  0  0
 43127  1  0  0  0  0
 43128  1  0  0  0  0
 50129  1  0  0  0  0
 58130  1  0  0  0  0
 61131  1  0  0  0  0
 61132  1  0  0  0  0
 61133  1  0  0  0  0
 62134  1  0  0  0  0
 63135  1  0  0  0  0
 69136  1  0  0  0  0
 72137  1  0  0  0  0
 72138  1  0  0  0  0
 72139  1  0  0  0  0
 73140  1  0  0  0  0
 74141  1  0  0  0  0
 76142  1  0  0  0  0
 82143  1  0  0  0  0
 82144  1  0  0  0  0
 83145  1  0  0  0  0
 83146  1  0  0  0  0
 83147  1  0  0  0  0
 94148  1  0  0  0  0
 94149  1  0  0  0  0
 95150  1  0  0  0  0
 95151  1  0  0  0  0
 95152  1  0  0  0  0
102153  1  0  0  0  0
103154  1  0  0  0  0
M  END
