
  xtb     03012220293D
 energy: -343.441006611308 gnorm: 0.000204311682 xtb: 6.4.1 (unknown)
179199  0     0  0            999 V2000
    4.1314   -8.7256   12.7994 C   0  0  0  0  0  0  0  0  0  0  0  0
    4.1208   -7.3817   12.9076 C   0  0  0  0  0  0  0  0  0  0  0  0
    3.3874   -6.7470   11.8622 C   0  0  0  0  0  0  0  0  0  0  0  0
    3.1598   -5.3747   11.6670 C   0  0  0  0  0  0  0  0  0  0  0  0
    3.7763   -4.3761   12.5256 C   0  0  0  0  0  0  0  0  0  0  0  0
    2.8354   -3.1489   13.3178 S   0  0  0  0  0  0  0  0  0  0  0  0
    4.2343   -2.4379   14.0458 C   0  0  0  0  0  0  0  0  0  0  0  0
    4.1203   -1.2797   14.9744 C   0  0  0  0  0  0  0  0  0  0  0  0
    3.9324   -1.7528   16.4179 C   0  0  0  0  0  0  0  0  0  0  0  0
    5.3564   -3.1246   13.6888 C   0  0  0  0  0  0  0  0  0  0  0  0
    6.9373   -2.7116   14.2137 Cl  0  0  0  0  0  0  0  0  0  0  0  0
    5.1018   -4.2215   12.8234 C   0  0  0  0  0  0  0  0  0  0  0  0
    6.3555   -5.1929   12.1662 Cl  0  0  0  0  0  0  0  0  0  0  0  0
    2.3464   -5.0137   10.6004 C   0  0  0  0  0  0  0  0  0  0  0  0
    1.7852   -5.9668    9.7187 C   0  0  0  0  0  0  0  0  0  0  0  0
    2.0176   -7.3390    9.9058 C   0  0  0  0  0  0  0  0  0  0  0  0
    1.4234   -8.2993    8.9903 C   0  0  0  0  0  0  0  0  0  0  0  0
    2.3866   -9.4349    8.0948 S   0  0  0  0  0  0  0  0  0  0  0  0
    1.0132  -10.0352    7.2303 C   0  0  0  0  0  0  0  0  0  0  0  0
    1.1564  -11.0497    6.1501 C   0  0  0  0  0  0  0  0  0  0  0  0
    1.3336  -10.3667    4.7910 C   0  0  0  0  0  0  0  0  0  0  0  0
   -0.1198   -9.3903    7.6295 C   0  0  0  0  0  0  0  0  0  0  0  0
    0.1090   -8.4061    8.6263 C   0  0  0  0  0  0  0  0  0  0  0  0
   -1.1631   -7.4948    9.3336 Cl  0  0  0  0  0  0  0  0  0  0  0  0
   -1.6803   -9.7177    6.9976 Cl  0  0  0  0  0  0  0  0  0  0  0  0
    2.8285   -7.6967   10.9730 C   0  0  0  0  0  0  0  0  0  0  0  0
    3.2488   -9.3212   11.4352 S   0  0  0  0  0  0  0  0  0  0  0  0
    1.0752   -5.3537    8.6612 C   0  0  0  0  0  0  0  0  0  0  0  0
    1.0629   -3.9920    8.7276 C   0  0  0  0  0  0  0  0  0  0  0  0
    1.9517   -3.3879   10.1079 S   0  0  0  0  0  0  0  0  0  0  0  0
    0.4551   -3.1555    7.7407 C   0  0  0  0  0  0  0  0  0  0  0  0
   -0.4908   -3.5743    6.8510 C   0  0  0  0  0  0  0  0  0  0  0  0
   -0.7688   -2.6319    5.8363 C   0  0  0  0  0  0  0  0  0  0  0  0
   -1.6344   -2.7858    4.7402 C   0  0  0  0  0  0  0  0  0  0  0  0
   -2.3487   -4.0314    4.5129 C   0  0  0  0  0  0  0  0  0  0  0  0
   -4.0658   -4.0433    4.2428 S   0  0  0  0  0  0  0  0  0  0  0  0
   -4.1080   -5.7660    4.0713 C   0  0  0  0  0  0  0  0  0  0  0  0
   -5.3823   -6.4728    3.7665 C   0  0  0  0  0  0  0  0  0  0  0  0
   -5.8326   -6.1991    2.3302 C   0  0  0  0  0  0  0  0  0  0  0  0
   -2.8553   -6.2848    4.2061 C   0  0  0  0  0  0  0  0  0  0  0  0
   -2.4875   -7.9562    4.0916 Cl  0  0  0  0  0  0  0  0  0  0  0  0
   -1.8563   -5.3065    4.4607 C   0  0  0  0  0  0  0  0  0  0  0  0
   -0.1940   -5.7185    4.5950 Cl  0  0  0  0  0  0  0  0  0  0  0  0
   -1.7351   -1.7125    3.8681 C   0  0  0  0  0  0  0  0  0  0  0  0
   -1.0011   -0.5130    4.0369 C   0  0  0  0  0  0  0  0  0  0  0  0
   -0.1396   -0.3576    5.1386 C   0  0  0  0  0  0  0  0  0  0  0  0
    0.5947    0.8818    5.3315 C   0  0  0  0  0  0  0  0  0  0  0  0
   -0.2465    2.4052    5.3584 S   0  0  0  0  0  0  0  0  0  0  0  0
    1.2128    3.2986    5.6141 C   0  0  0  0  0  0  0  0  0  0  0  0
    1.2013    4.7861    5.6710 C   0  0  0  0  0  0  0  0  0  0  0  0
    1.1630    5.3832    4.2619 C   0  0  0  0  0  0  0  0  0  0  0  0
    2.2800    2.4530    5.6668 C   0  0  0  0  0  0  0  0  0  0  0  0
    1.9346    1.0826    5.5130 C   0  0  0  0  0  0  0  0  0  0  0  0
    3.1152   -0.1584    5.4665 Cl  0  0  0  0  0  0  0  0  0  0  0  0
    3.8999    2.9700    5.8979 Cl  0  0  0  0  0  0  0  0  0  0  0  0
   -0.0321   -1.4333    6.0108 C   0  0  0  0  0  0  0  0  0  0  0  0
    0.9803   -1.5184    7.4254 S   0  0  0  0  0  0  0  0  0  0  0  0
   -1.1793    0.3689    2.9433 C   0  0  0  0  0  0  0  0  0  0  0  0
   -2.0106   -0.1180    1.9788 C   0  0  0  0  0  0  0  0  0  0  0  0
   -2.6578   -1.6942    2.3924 S   0  0  0  0  0  0  0  0  0  0  0  0
   -2.3009    0.4543    0.7086 C   0  0  0  0  0  0  0  0  0  0  0  0
   -3.1227   -0.0447   -0.2593 C   0  0  0  0  0  0  0  0  0  0  0  0
   -3.0900    0.6935   -1.4646 C   0  0  0  0  0  0  0  0  0  0  0  0
   -3.7323    0.3844   -2.6807 C   0  0  0  0  0  0  0  0  0  0  0  0
   -4.6842   -0.7117   -2.7510 C   0  0  0  0  0  0  0  0  0  0  0  0
   -6.0097   -0.7892   -1.6247 S   0  0  0  0  0  0  0  0  0  0  0  0
   -6.6157   -2.2574   -2.3116 C   0  0  0  0  0  0  0  0  0  0  0  0
   -7.7905   -2.9538   -1.7189 C   0  0  0  0  0  0  0  0  0  0  0  0
   -7.3860   -3.7207   -0.4572 C   0  0  0  0  0  0  0  0  0  0  0  0
   -5.8267   -2.6512   -3.3499 C   0  0  0  0  0  0  0  0  0  0  0  0
   -6.1042   -4.0668   -4.2806 Cl  0  0  0  0  0  0  0  0  0  0  0  0
   -4.7339   -1.7781   -3.6049 C   0  0  0  0  0  0  0  0  0  0  0  0
   -3.5594   -2.1218   -4.8052 Cl  0  0  0  0  0  0  0  0  0  0  0  0
   -3.3993    1.1609   -3.7780 C   0  0  0  0  0  0  0  0  0  0  0  0
   -2.4840    2.2442   -3.7107 C   0  0  0  0  0  0  0  0  0  0  0  0
   -1.8960    2.5963   -2.4797 C   0  0  0  0  0  0  0  0  0  0  0  0
   -0.9797    3.7175   -2.3717 C   0  0  0  0  0  0  0  0  0  0  0  0
    0.3653    3.9023   -3.4622 S   0  0  0  0  0  0  0  0  0  0  0  0
    0.8985    5.3573   -2.6927 C   0  0  0  0  0  0  0  0  0  0  0  0
    2.1128    6.0753   -3.1686 C   0  0  0  0  0  0  0  0  0  0  0  0
    3.3882    5.3901   -2.6734 C   0  0  0  0  0  0  0  0  0  0  0  0
    0.0841    5.6600   -1.6436 C   0  0  0  0  0  0  0  0  0  0  0  0
   -0.9820    4.7385   -1.4608 C   0  0  0  0  0  0  0  0  0  0  0  0
   -2.1915    4.9718   -0.2690 Cl  0  0  0  0  0  0  0  0  0  0  0  0
    0.2935    7.0308   -0.6322 Cl  0  0  0  0  0  0  0  0  0  0  0  0
   -2.2023    1.7941   -1.3876 C   0  0  0  0  0  0  0  0  0  0  0  0
   -1.4691    1.9044    0.1870 S   0  0  0  0  0  0  0  0  0  0  0  0
   -2.2834    2.8401   -4.9693 C   0  0  0  0  0  0  0  0  0  0  0  0
   -2.9856    2.2532   -5.9936 C   0  0  0  0  0  0  0  0  0  0  0  0
   -4.0130    0.9616   -5.3954 S   0  0  0  0  0  0  0  0  0  0  0  0
   -2.8251    2.5553   -7.3631 C   0  0  0  0  0  0  0  0  0  0  0  0
   -1.5046    3.5982   -7.8018 S   0  0  0  0  0  0  0  0  0  0  0  0
   -1.7671    3.3994   -9.5074 C   0  0  0  0  0  0  0  0  0  0  0  0
   -2.9013    2.5869   -9.7217 C   0  0  0  0  0  0  0  0  0  0  0  0
   -3.4848    2.0998   -8.5112 C   0  0  0  0  0  0  0  0  0  0  0  0
   -4.6054    1.2504   -8.5489 C   0  0  0  0  0  0  0  0  0  0  0  0
   -5.1430    0.8929   -9.7602 C   0  0  0  0  0  0  0  0  0  0  0  0
   -6.2065    0.0683   -9.9275 O   0  0  0  0  0  0  0  0  0  0  0  0
   -6.7868   -0.5150   -8.7845 C   0  0  0  0  0  0  0  0  0  0  0  0
   -4.5919    1.4100  -10.9593 C   0  0  0  0  0  0  0  0  0  0  0  0
   -3.5066    2.2335  -10.9440 C   0  0  0  0  0  0  0  0  0  0  0  0
   -0.8423    3.9215  -10.4318 C   0  0  0  0  0  0  0  0  0  0  0  0
   -0.8295    3.3745  -12.0871 S   0  0  0  0  0  0  0  0  0  0  0  0
    0.6244    4.2264  -12.4762 C   0  0  0  0  0  0  0  0  0  0  0  0
    1.0555    4.9802  -11.3786 C   0  0  0  0  0  0  0  0  0  0  0  0
    0.2401    4.8041  -10.2162 C   0  0  0  0  0  0  0  0  0  0  0  0
    0.5616    5.5199   -9.0550 C   0  0  0  0  0  0  0  0  0  0  0  0
    1.6402    6.3789   -9.0347 C   0  0  0  0  0  0  0  0  0  0  0  0
    1.8710    7.0063   -7.8485 O   0  0  0  0  0  0  0  0  0  0  0  0
    2.9349    7.9220   -7.7528 C   0  0  0  0  0  0  0  0  0  0  0  0
    2.4097    6.5840  -10.2011 C   0  0  0  0  0  0  0  0  0  0  0  0
    2.1139    5.9083  -11.3503 C   0  0  0  0  0  0  0  0  0  0  0  0
    1.2127    4.0929  -13.7617 C   0  0  0  0  0  0  0  0  0  0  0  0
    0.2121    3.9925  -15.1818 S   0  0  0  0  0  0  0  0  0  0  0  0
    1.5614    3.8750  -16.2175 C   0  0  0  0  0  0  0  0  0  0  0  0
    2.7516    3.8791  -15.5253 C   0  0  0  0  0  0  0  0  0  0  0  0
    2.5619    3.9870  -14.1077 C   0  0  0  0  0  0  0  0  0  0  0  0
    3.6723    3.8873  -13.2413 C   0  0  0  0  0  0  0  0  0  0  0  0
    4.9272    3.7601  -13.7749 C   0  0  0  0  0  0  0  0  0  0  0  0
    6.0765    3.6578  -13.0546 O   0  0  0  0  0  0  0  0  0  0  0  0
    5.9899    3.6710  -11.6511 C   0  0  0  0  0  0  0  0  0  0  0  0
    5.1184    3.7214  -15.1868 C   0  0  0  0  0  0  0  0  0  0  0  0
    4.0670    3.7667  -16.0421 C   0  0  0  0  0  0  0  0  0  0  0  0
    4.6082   -9.4341   13.4480 H   0  0  0  0  0  0  0  0  0  0  0  0
    4.6018   -6.8448   13.7039 H   0  0  0  0  0  0  0  0  0  0  0  0
    5.0308   -0.6815   14.9032 H   0  0  0  0  0  0  0  0  0  0  0  0
    3.2706   -0.6625   14.6789 H   0  0  0  0  0  0  0  0  0  0  0  0
    3.8498   -0.8978   17.0832 H   0  0  0  0  0  0  0  0  0  0  0  0
    3.0288   -2.3517   16.5040 H   0  0  0  0  0  0  0  0  0  0  0  0
    4.7811   -2.3562   16.7296 H   0  0  0  0  0  0  0  0  0  0  0  0
    0.2601  -11.6731    6.1290 H   0  0  0  0  0  0  0  0  0  0  0  0
    2.0203  -11.6827    6.3579 H   0  0  0  0  0  0  0  0  0  0  0  0
    2.2242   -9.7427    4.7949 H   0  0  0  0  0  0  0  0  0  0  0  0
    1.4331  -11.1130    4.0073 H   0  0  0  0  0  0  0  0  0  0  0  0
    0.4730   -9.7409    4.5687 H   0  0  0  0  0  0  0  0  0  0  0  0
    0.6342   -5.9015    7.8505 H   0  0  0  0  0  0  0  0  0  0  0  0
   -0.9808   -4.5260    6.9258 H   0  0  0  0  0  0  0  0  0  0  0  0
   -5.2298   -7.5436    3.9110 H   0  0  0  0  0  0  0  0  0  0  0  0
   -6.1585   -6.1360    4.4571 H   0  0  0  0  0  0  0  0  0  0  0  0
   -5.9873   -5.1331    2.1814 H   0  0  0  0  0  0  0  0  0  0  0  0
   -6.7637   -6.7202    2.1248 H   0  0  0  0  0  0  0  0  0  0  0  0
   -5.0784   -6.5422    1.6264 H   0  0  0  0  0  0  0  0  0  0  0  0
    0.3262    5.1219    6.2304 H   0  0  0  0  0  0  0  0  0  0  0  0
    2.1001    5.1240    6.1896 H   0  0  0  0  0  0  0  0  0  0  0  0
    1.1513    6.4684    4.3163 H   0  0  0  0  0  0  0  0  0  0  0  0
    0.2720    5.0508    3.7343 H   0  0  0  0  0  0  0  0  0  0  0  0
    2.0380    5.0721    3.6965 H   0  0  0  0  0  0  0  0  0  0  0  0
   -0.6845    1.3185    2.8496 H   0  0  0  0  0  0  0  0  0  0  0  0
   -3.7027   -0.9382   -0.1152 H   0  0  0  0  0  0  0  0  0  0  0  0
   -8.1962   -3.6467   -2.4579 H   0  0  0  0  0  0  0  0  0  0  0  0
   -8.5593   -2.2214   -1.4658 H   0  0  0  0  0  0  0  0  0  0  0  0
   -6.6281   -4.4635   -0.6936 H   0  0  0  0  0  0  0  0  0  0  0  0
   -6.9829   -3.0361    0.2855 H   0  0  0  0  0  0  0  0  0  0  0  0
   -8.2496   -4.2269   -0.0344 H   0  0  0  0  0  0  0  0  0  0  0  0
    2.1128    6.0972   -4.2605 H   0  0  0  0  0  0  0  0  0  0  0  0
    2.0778    7.1009   -2.7967 H   0  0  0  0  0  0  0  0  0  0  0  0
    3.4071    5.3689   -1.5866 H   0  0  0  0  0  0  0  0  0  0  0  0
    3.4332    4.3679   -3.0416 H   0  0  0  0  0  0  0  0  0  0  0  0
    4.2640    5.9280   -3.0265 H   0  0  0  0  0  0  0  0  0  0  0  0
   -1.6232    3.6699   -5.1411 H   0  0  0  0  0  0  0  0  0  0  0  0
   -5.0249    0.9020   -7.6210 H   0  0  0  0  0  0  0  0  0  0  0  0
   -7.5792   -1.1636   -9.1542 H   0  0  0  0  0  0  0  0  0  0  0  0
   -7.2169    0.2429   -8.1223 H   0  0  0  0  0  0  0  0  0  0  0  0
   -6.0586   -1.1108   -8.2257 H   0  0  0  0  0  0  0  0  0  0  0  0
   -5.0666    1.1311  -11.8862 H   0  0  0  0  0  0  0  0  0  0  0  0
   -3.1266    2.6257  -11.8727 H   0  0  0  0  0  0  0  0  0  0  0  0
   -0.0287    5.4416   -8.1595 H   0  0  0  0  0  0  0  0  0  0  0  0
    2.9146    8.2871   -6.7270 H   0  0  0  0  0  0  0  0  0  0  0  0
    3.9003    7.4421   -7.9444 H   0  0  0  0  0  0  0  0  0  0  0  0
    2.8050    8.7671   -8.4363 H   0  0  0  0  0  0  0  0  0  0  0  0
    3.2223    7.2930  -10.2005 H   0  0  0  0  0  0  0  0  0  0  0  0
    2.6739    6.0977  -12.2528 H   0  0  0  0  0  0  0  0  0  0  0  0
    1.4161    3.8034  -17.2767 H   0  0  0  0  0  0  0  0  0  0  0  0
    3.5021    3.8910  -12.1777 H   0  0  0  0  0  0  0  0  0  0  0  0
    5.5508    4.6050  -11.2848 H   0  0  0  0  0  0  0  0  0  0  0  0
    5.4022    2.8264  -11.2772 H   0  0  0  0  0  0  0  0  0  0  0  0
    7.0137    3.5860  -11.2907 H   0  0  0  0  0  0  0  0  0  0  0  0
    6.1328    3.6316  -15.5417 H   0  0  0  0  0  0  0  0  0  0  0  0
    4.2103    3.7088  -17.1100 H   0  0  0  0  0  0  0  0  0  0  0  0
  1  2  2  0  0  0  0
  2  3  1  0  0  0  0
  3  4  2  0  0  0  0
  4  5  1  0  0  0  0
  5  6  1  0  0  0  0
  6  7  1  0  0  0  0
  7  8  1  0  0  0  0
  8  9  1  0  0  0  0
  7 10  2  0  0  0  0
 10 11  1  0  0  0  0
 10 12  1  0  0  0  0
 12 13  1  0  0  0  0
  4 14  1  0  0  0  0
 14 15  2  0  0  0  0
 15 16  1  0  0  0  0
 16 17  1  0  0  0  0
 17 18  1  0  0  0  0
 18 19  1  0  0  0  0
 19 20  1  0  0  0  0
 20 21  1  0  0  0  0
 19 22  2  0  0  0  0
 22 23  1  0  0  0  0
 23 24  1  0  0  0  0
 22 25  1  0  0  0  0
 16 26  2  0  0  0  0
 26 27  1  0  0  0  0
 15 28  1  0  0  0  0
 28 29  2  0  0  0  0
 29 30  1  0  0  0  0
 29 31  1  0  0  0  0
 31 32  2  0  0  0  0
 32 33  1  0  0  0  0
 33 34  2  0  0  0  0
 34 35  1  0  0  0  0
 35 36  1  0  0  0  0
 36 37  1  0  0  0  0
 37 38  1  0  0  0  0
 38 39  1  0  0  0  0
 37 40  2  0  0  0  0
 40 41  1  0  0  0  0
 40 42  1  0  0  0  0
 42 43  1  0  0  0  0
 34 44  1  0  0  0  0
 44 45  2  0  0  0  0
 45 46  1  0  0  0  0
 46 47  1  0  0  0  0
 47 48  1  0  0  0  0
 48 49  1  0  0  0  0
 49 50  1  0  0  0  0
 50 51  1  0  0  0  0
 49 52  2  0  0  0  0
 52 53  1  0  0  0  0
 53 54  1  0  0  0  0
 52 55  1  0  0  0  0
 46 56  2  0  0  0  0
 56 57  1  0  0  0  0
 45 58  1  0  0  0  0
 58 59  2  0  0  0  0
 59 60  1  0  0  0  0
 59 61  1  0  0  0  0
 61 62  2  0  0  0  0
 62 63  1  0  0  0  0
 63 64  2  0  0  0  0
 64 65  1  0  0  0  0
 65 66  1  0  0  0  0
 66 67  1  0  0  0  0
 67 68  1  0  0  0  0
 68 69  1  0  0  0  0
 67 70  2  0  0  0  0
 70 71  1  0  0  0  0
 70 72  1  0  0  0  0
 72 73  1  0  0  0  0
 64 74  1  0  0  0  0
 74 75  2  0  0  0  0
 75 76  1  0  0  0  0
 76 77  1  0  0  0  0
 77 78  1  0  0  0  0
 78 79  1  0  0  0  0
 79 80  1  0  0  0  0
 80 81  1  0  0  0  0
 79 82  2  0  0  0  0
 82 83  1  0  0  0  0
 83 84  1  0  0  0  0
 82 85  1  0  0  0  0
 76 86  2  0  0  0  0
 86 87  1  0  0  0  0
 75 88  1  0  0  0  0
 88 89  2  0  0  0  0
 89 90  1  0  0  0  0
 89 91  1  0  0  0  0
 91 92  1  0  0  0  0
 92 93  1  0  0  0  0
 93 94  2  0  0  0  0
 94 95  1  0  0  0  0
 95 96  1  0  0  0  0
 96 97  2  0  0  0  0
 97 98  1  0  0  0  0
 98 99  1  0  0  0  0
 97100  1  0  0  0  0
100101  2  0  0  0  0
 93102  1  0  0  0  0
102103  1  0  0  0  0
103104  1  0  0  0  0
104105  2  0  0  0  0
105106  1  0  0  0  0
106107  1  0  0  0  0
107108  2  0  0  0  0
108109  1  0  0  0  0
109110  1  0  0  0  0
108111  1  0  0  0  0
111112  2  0  0  0  0
104113  1  0  0  0  0
113114  1  0  0  0  0
114115  1  0  0  0  0
115116  2  0  0  0  0
116117  1  0  0  0  0
117118  1  0  0  0  0
118119  2  0  0  0  0
119120  1  0  0  0  0
120121  1  0  0  0  0
119122  1  0  0  0  0
122123  2  0  0  0  0
 27  1  1  0  0  0  0
 57 31  1  0  0  0  0
 87 61  1  0  0  0  0
 95 91  2  0  0  0  0
106102  2  0  0  0  0
117113  2  0  0  0  0
 26  3  1  0  0  0  0
 56 33  1  0  0  0  0
 86 63  1  0  0  0  0
101 94  1  0  0  0  0
112105  1  0  0  0  0
123116  1  0  0  0  0
 12  5  2  0  0  0  0
 30 14  1  0  0  0  0
 42 35  2  0  0  0  0
 60 44  1  0  0  0  0
 72 65  2  0  0  0  0
 90 74  1  0  0  0  0
 23 17  2  0  0  0  0
 53 47  2  0  0  0  0
 83 77  2  0  0  0  0
  1124  1  0  0  0  0
  2125  1  0  0  0  0
  8126  1  0  0  0  0
  8127  1  0  0  0  0
  9128  1  0  0  0  0
  9129  1  0  0  0  0
  9130  1  0  0  0  0
 20131  1  0  0  0  0
 20132  1  0  0  0  0
 21133  1  0  0  0  0
 21134  1  0  0  0  0
 21135  1  0  0  0  0
 28136  1  0  0  0  0
 32137  1  0  0  0  0
 38138  1  0  0  0  0
 38139  1  0  0  0  0
 39140  1  0  0  0  0
 39141  1  0  0  0  0
 39142  1  0  0  0  0
 50143  1  0  0  0  0
 50144  1  0  0  0  0
 51145  1  0  0  0  0
 51146  1  0  0  0  0
 51147  1  0  0  0  0
 58148  1  0  0  0  0
 62149  1  0  0  0  0
 68150  1  0  0  0  0
 68151  1  0  0  0  0
 69152  1  0  0  0  0
 69153  1  0  0  0  0
 69154  1  0  0  0  0
 80155  1  0  0  0  0
 80156  1  0  0  0  0
 81157  1  0  0  0  0
 81158  1  0  0  0  0
 81159  1  0  0  0  0
 88160  1  0  0  0  0
 96161  1  0  0  0  0
 99162  1  0  0  0  0
 99163  1  0  0  0  0
 99164  1  0  0  0  0
100165  1  0  0  0  0
101166  1  0  0  0  0
107167  1  0  0  0  0
110168  1  0  0  0  0
110169  1  0  0  0  0
110170  1  0  0  0  0
111171  1  0  0  0  0
112172  1  0  0  0  0
115173  1  0  0  0  0
118174  1  0  0  0  0
121175  1  0  0  0  0
121176  1  0  0  0  0
121177  1  0  0  0  0
122178  1  0  0  0  0
123179  1  0  0  0  0
M  END
