
  xtb     03012219283D
 energy: -232.346071788927 gnorm: 0.000337489784 xtb: 6.4.1 (unknown)
119130  0     0  0            999 V2000
    9.7575   -1.2821   -3.7444 C   0  0  0  0  0  0  0  0  0  0  0  0
    8.3417   -2.2190   -3.9245 S   0  0  0  0  0  0  0  0  0  0  0  0
    7.5228   -1.3137   -2.6747 C   0  0  0  0  0  0  0  0  0  0  0  0
    8.3549   -0.3403   -2.1558 C   0  0  0  0  0  0  0  0  0  0  0  0
    9.6267   -0.3280   -2.7802 C   0  0  0  0  0  0  0  0  0  0  0  0
   10.7209    0.6360   -2.4108 C   0  0  0  0  0  0  0  0  0  0  0  0
   11.8691   -0.1353   -1.7594 C   0  0  0  0  0  0  0  0  0  0  0  0
   11.4916   -0.9248   -0.7463 F   0  0  0  0  0  0  0  0  0  0  0  0
   12.4895   -0.9351   -2.6442 F   0  0  0  0  0  0  0  0  0  0  0  0
   12.8192    0.6796   -1.2711 F   0  0  0  0  0  0  0  0  0  0  0  0
   10.2006    1.7549   -1.5022 C   0  0  0  0  0  0  0  0  0  0  0  0
    9.2726    1.2049   -0.4249 C   0  0  0  0  0  0  0  0  0  0  0  0
    8.0143    0.6158   -1.0577 C   0  0  0  0  0  0  0  0  0  0  0  0
    6.1634   -1.5968   -2.3205 C   0  0  0  0  0  0  0  0  0  0  0  0
    5.2091   -0.3512   -1.5690 S   0  0  0  0  0  0  0  0  0  0  0  0
    3.8360   -1.4045   -1.3727 C   0  0  0  0  0  0  0  0  0  0  0  0
    4.1093   -2.6490   -1.9017 C   0  0  0  0  0  0  0  0  0  0  0  0
    5.4077   -2.7444   -2.4492 C   0  0  0  0  0  0  0  0  0  0  0  0
    5.8513   -4.0560   -3.0218 C   0  0  0  0  0  0  0  0  0  0  0  0
    5.3724   -4.1918   -4.4691 C   0  0  0  0  0  0  0  0  0  0  0  0
    4.0986   -3.8198   -4.6653 F   0  0  0  0  0  0  0  0  0  0  0  0
    5.4682   -5.4549   -4.9172 F   0  0  0  0  0  0  0  0  0  0  0  0
    6.0948   -3.4423   -5.3172 F   0  0  0  0  0  0  0  0  0  0  0  0
    5.2897   -5.1756   -2.1363 C   0  0  0  0  0  0  0  0  0  0  0  0
    3.7650   -5.1768   -2.1438 C   0  0  0  0  0  0  0  0  0  0  0  0
    3.1514   -3.7982   -1.8389 C   0  0  0  0  0  0  0  0  0  0  0  0
    2.6195   -0.9164   -0.7983 C   0  0  0  0  0  0  0  0  0  0  0  0
    1.0998   -1.5607   -1.3520 S   0  0  0  0  0  0  0  0  0  0  0  0
    0.1760   -0.4003   -0.4344 C   0  0  0  0  0  0  0  0  0  0  0  0
    1.0337    0.4305    0.2717 C   0  0  0  0  0  0  0  0  0  0  0  0
    2.3962    0.1164    0.0950 C   0  0  0  0  0  0  0  0  0  0  0  0
    3.4827    0.7904    0.8944 C   0  0  0  0  0  0  0  0  0  0  0  0
    4.0701   -0.2093    1.8903 C   0  0  0  0  0  0  0  0  0  0  0  0
    5.0292    0.3580    2.6446 F   0  0  0  0  0  0  0  0  0  0  0  0
    3.1471   -0.6803    2.7420 F   0  0  0  0  0  0  0  0  0  0  0  0
    4.6394   -1.2869    1.3316 F   0  0  0  0  0  0  0  0  0  0  0  0
    2.9904    2.0021    1.7074 C   0  0  0  0  0  0  0  0  0  0  0  0
    1.7738    2.6443    1.0613 C   0  0  0  0  0  0  0  0  0  0  0  0
    0.6243    1.6412    1.0450 C   0  0  0  0  0  0  0  0  0  0  0  0
   -1.2442   -0.4212   -0.4445 C   0  0  0  0  0  0  0  0  0  0  0  0
   -2.1344    0.4688    0.7554 S   0  0  0  0  0  0  0  0  0  0  0  0
   -3.6744   -0.0301    0.1506 C   0  0  0  0  0  0  0  0  0  0  0  0
   -3.5080   -0.8837   -0.9393 C   0  0  0  0  0  0  0  0  0  0  0  0
   -2.1362   -1.1101   -1.2794 C   0  0  0  0  0  0  0  0  0  0  0  0
   -1.8246   -1.9437   -2.3730 C   0  0  0  0  0  0  0  0  0  0  0  0
   -2.8313   -2.5623   -3.0684 C   0  0  0  0  0  0  0  0  0  0  0  0
   -2.6502   -3.3886   -4.1284 O   0  0  0  0  0  0  0  0  0  0  0  0
   -1.3359   -3.6708   -4.5468 C   0  0  0  0  0  0  0  0  0  0  0  0
   -4.1883   -2.3742   -2.6907 C   0  0  0  0  0  0  0  0  0  0  0  0
   -4.5218   -1.5556   -1.6606 C   0  0  0  0  0  0  0  0  0  0  0  0
   -4.8904    0.5024    0.6812 C   0  0  0  0  0  0  0  0  0  0  0  0
   -6.2019    0.8745   -0.4043 S   0  0  0  0  0  0  0  0  0  0  0  0
   -7.1783    1.4886    0.8937 C   0  0  0  0  0  0  0  0  0  0  0  0
   -6.5135    1.4152    2.0899 C   0  0  0  0  0  0  0  0  0  0  0  0
   -5.2184    0.8644    1.9714 C   0  0  0  0  0  0  0  0  0  0  0  0
   -4.3638    0.6225    3.1857 C   0  0  0  0  0  0  0  0  0  0  0  0
   -4.5159   -0.8473    3.5754 C   0  0  0  0  0  0  0  0  0  0  0  0
   -4.1445   -1.6878    2.6014 F   0  0  0  0  0  0  0  0  0  0  0  0
   -3.7678   -1.1634    4.6476 F   0  0  0  0  0  0  0  0  0  0  0  0
   -5.7801   -1.1637    3.8949 F   0  0  0  0  0  0  0  0  0  0  0  0
   -4.7357    1.4985    4.4042 C   0  0  0  0  0  0  0  0  0  0  0  0
   -5.7371    2.5979    4.0673 C   0  0  0  0  0  0  0  0  0  0  0  0
   -6.9642    1.9846    3.3943 C   0  0  0  0  0  0  0  0  0  0  0  0
   -8.4868    2.0325    0.6259 C   0  0  0  0  0  0  0  0  0  0  0  0
   -8.6382    3.3126   -0.5447 S   0  0  0  0  0  0  0  0  0  0  0  0
  -10.3147    3.4652   -0.2151 C   0  0  0  0  0  0  0  0  0  0  0  0
  -10.7460    2.5774    0.7178 C   0  0  0  0  0  0  0  0  0  0  0  0
   -9.7025    1.7364    1.1921 C   0  0  0  0  0  0  0  0  0  0  0  0
   -9.9618    0.6070    2.1544 C   0  0  0  0  0  0  0  0  0  0  0  0
   -9.7424   -0.7315    1.4503 C   0  0  0  0  0  0  0  0  0  0  0  0
   -8.4716   -0.9577    1.0953 F   0  0  0  0  0  0  0  0  0  0  0  0
  -10.0953   -1.7654    2.2332 F   0  0  0  0  0  0  0  0  0  0  0  0
  -10.4727   -0.8417    0.3294 F   0  0  0  0  0  0  0  0  0  0  0  0
  -11.4022    0.6011    2.7071 C   0  0  0  0  0  0  0  0  0  0  0  0
  -12.0309    1.9886    2.7157 C   0  0  0  0  0  0  0  0  0  0  0  0
  -12.1269    2.5023    1.2817 C   0  0  0  0  0  0  0  0  0  0  0  0
   10.6112   -1.4912   -4.3575 H   0  0  0  0  0  0  0  0  0  0  0  0
   11.1572    1.0684   -3.3196 H   0  0  0  0  0  0  0  0  0  0  0  0
    9.6495    2.4663   -2.1205 H   0  0  0  0  0  0  0  0  0  0  0  0
   11.0429    2.2818   -1.0512 H   0  0  0  0  0  0  0  0  0  0  0  0
    9.7838    0.4376    0.1563 H   0  0  0  0  0  0  0  0  0  0  0  0
    8.9904    2.0069    0.2582 H   0  0  0  0  0  0  0  0  0  0  0  0
    7.4225    0.1102   -0.2919 H   0  0  0  0  0  0  0  0  0  0  0  0
    7.3995    1.4242   -1.4677 H   0  0  0  0  0  0  0  0  0  0  0  0
    6.9429   -4.1226   -3.0604 H   0  0  0  0  0  0  0  0  0  0  0  0
    5.6598   -5.0078   -1.1233 H   0  0  0  0  0  0  0  0  0  0  0  0
    5.6586   -6.1428   -2.4808 H   0  0  0  0  0  0  0  0  0  0  0  0
    3.4159   -5.5256   -3.1162 H   0  0  0  0  0  0  0  0  0  0  0  0
    3.4138   -5.8968   -1.4040 H   0  0  0  0  0  0  0  0  0  0  0  0
    2.3427   -3.6101   -2.5497 H   0  0  0  0  0  0  0  0  0  0  0  0
    2.7042   -3.8024   -0.8418 H   0  0  0  0  0  0  0  0  0  0  0  0
    4.2989    1.0921    0.2321 H   0  0  0  0  0  0  0  0  0  0  0  0
    2.7131    1.6770    2.7128 H   0  0  0  0  0  0  0  0  0  0  0  0
    3.8043    2.7213    1.8042 H   0  0  0  0  0  0  0  0  0  0  0  0
    1.4844    3.5316    1.6248 H   0  0  0  0  0  0  0  0  0  0  0  0
    2.0102    2.9476    0.0396 H   0  0  0  0  0  0  0  0  0  0  0  0
    0.3537    1.3672    2.0690 H   0  0  0  0  0  0  0  0  0  0  0  0
   -0.2537    2.0951    0.5814 H   0  0  0  0  0  0  0  0  0  0  0  0
   -0.7964   -2.0838   -2.6530 H   0  0  0  0  0  0  0  0  0  0  0  0
   -0.8162   -2.7664   -4.8779 H   0  0  0  0  0  0  0  0  0  0  0  0
   -1.4346   -4.3578   -5.3854 H   0  0  0  0  0  0  0  0  0  0  0  0
   -0.7575   -4.1492   -3.7500 H   0  0  0  0  0  0  0  0  0  0  0  0
   -4.9388   -2.9068   -3.2520 H   0  0  0  0  0  0  0  0  0  0  0  0
   -5.5531   -1.4301   -1.3738 H   0  0  0  0  0  0  0  0  0  0  0  0
   -3.3099    0.7582    2.9312 H   0  0  0  0  0  0  0  0  0  0  0  0
   -5.1729    0.8642    5.1788 H   0  0  0  0  0  0  0  0  0  0  0  0
   -3.8283    1.9384    4.8181 H   0  0  0  0  0  0  0  0  0  0  0  0
   -6.0238    3.1128    4.9847 H   0  0  0  0  0  0  0  0  0  0  0  0
   -5.2829    3.3265    3.3930 H   0  0  0  0  0  0  0  0  0  0  0  0
   -7.7416    2.7332    3.2309 H   0  0  0  0  0  0  0  0  0  0  0  0
   -7.3671    1.1981    4.0399 H   0  0  0  0  0  0  0  0  0  0  0  0
  -10.8893    4.2088   -0.7301 H   0  0  0  0  0  0  0  0  0  0  0  0
   -9.2372    0.6394    2.9733 H   0  0  0  0  0  0  0  0  0  0  0  0
  -12.0212   -0.0463    2.0811 H   0  0  0  0  0  0  0  0  0  0  0  0
  -11.3949    0.1775    3.7120 H   0  0  0  0  0  0  0  0  0  0  0  0
  -11.4249    2.6733    3.3125 H   0  0  0  0  0  0  0  0  0  0  0  0
  -13.0235    1.9315    3.1635 H   0  0  0  0  0  0  0  0  0  0  0  0
  -12.5979    3.4857    1.2450 H   0  0  0  0  0  0  0  0  0  0  0  0
  -12.7365    1.8161    0.6869 H   0  0  0  0  0  0  0  0  0  0  0  0
  1  2  1  0  0  0  0
  2  3  1  0  0  0  0
  3  4  2  0  0  0  0
  4  5  1  0  0  0  0
  5  6  1  0  0  0  0
  6  7  1  0  0  0  0
  7  8  1  0  0  0  0
  7  9  1  0  0  0  0
  7 10  1  0  0  0  0
  6 11  1  0  0  0  0
 11 12  1  0  0  0  0
 12 13  1  0  0  0  0
  3 14  1  0  0  0  0
 14 15  1  0  0  0  0
 15 16  1  0  0  0  0
 16 17  2  0  0  0  0
 17 18  1  0  0  0  0
 18 19  1  0  0  0  0
 19 20  1  0  0  0  0
 20 21  1  0  0  0  0
 20 22  1  0  0  0  0
 20 23  1  0  0  0  0
 19 24  1  0  0  0  0
 24 25  1  0  0  0  0
 25 26  1  0  0  0  0
 16 27  1  0  0  0  0
 27 28  1  0  0  0  0
 28 29  1  0  0  0  0
 29 30  2  0  0  0  0
 30 31  1  0  0  0  0
 31 32  1  0  0  0  0
 32 33  1  0  0  0  0
 33 34  1  0  0  0  0
 33 35  1  0  0  0  0
 33 36  1  0  0  0  0
 32 37  1  0  0  0  0
 37 38  1  0  0  0  0
 38 39  1  0  0  0  0
 29 40  1  0  0  0  0
 40 41  1  0  0  0  0
 41 42  1  0  0  0  0
 42 43  2  0  0  0  0
 43 44  1  0  0  0  0
 44 45  1  0  0  0  0
 45 46  2  0  0  0  0
 46 47  1  0  0  0  0
 47 48  1  0  0  0  0
 46 49  1  0  0  0  0
 49 50  2  0  0  0  0
 42 51  1  0  0  0  0
 51 52  1  0  0  0  0
 52 53  1  0  0  0  0
 53 54  2  0  0  0  0
 54 55  1  0  0  0  0
 55 56  1  0  0  0  0
 56 57  1  0  0  0  0
 57 58  1  0  0  0  0
 57 59  1  0  0  0  0
 57 60  1  0  0  0  0
 56 61  1  0  0  0  0
 61 62  1  0  0  0  0
 62 63  1  0  0  0  0
 53 64  1  0  0  0  0
 64 65  1  0  0  0  0
 65 66  1  0  0  0  0
 66 67  2  0  0  0  0
 67 68  1  0  0  0  0
 68 69  1  0  0  0  0
 69 70  1  0  0  0  0
 70 71  1  0  0  0  0
 70 72  1  0  0  0  0
 70 73  1  0  0  0  0
 69 74  1  0  0  0  0
 74 75  1  0  0  0  0
 75 76  1  0  0  0  0
  5  1  2  0  0  0  0
 18 14  2  0  0  0  0
 31 27  2  0  0  0  0
 44 40  2  0  0  0  0
 55 51  2  0  0  0  0
 68 64  2  0  0  0  0
 13  4  1  0  0  0  0
 26 17  1  0  0  0  0
 39 30  1  0  0  0  0
 50 43  1  0  0  0  0
 63 54  1  0  0  0  0
 76 67  1  0  0  0  0
  1 77  1  0  0  0  0
  6 78  1  0  0  0  0
 11 79  1  0  0  0  0
 11 80  1  0  0  0  0
 12 81  1  0  0  0  0
 12 82  1  0  0  0  0
 13 83  1  0  0  0  0
 13 84  1  0  0  0  0
 19 85  1  0  0  0  0
 24 86  1  0  0  0  0
 24 87  1  0  0  0  0
 25 88  1  0  0  0  0
 25 89  1  0  0  0  0
 26 90  1  0  0  0  0
 26 91  1  0  0  0  0
 32 92  1  0  0  0  0
 37 93  1  0  0  0  0
 37 94  1  0  0  0  0
 38 95  1  0  0  0  0
 38 96  1  0  0  0  0
 39 97  1  0  0  0  0
 39 98  1  0  0  0  0
 45 99  1  0  0  0  0
 48100  1  0  0  0  0
 48101  1  0  0  0  0
 48102  1  0  0  0  0
 49103  1  0  0  0  0
 50104  1  0  0  0  0
 56105  1  0  0  0  0
 61106  1  0  0  0  0
 61107  1  0  0  0  0
 62108  1  0  0  0  0
 62109  1  0  0  0  0
 63110  1  0  0  0  0
 63111  1  0  0  0  0
 66112  1  0  0  0  0
 69113  1  0  0  0  0
 74114  1  0  0  0  0
 74115  1  0  0  0  0
 75116  1  0  0  0  0
 75117  1  0  0  0  0
 76118  1  0  0  0  0
 76119  1  0  0  0  0
M  END
