94

C          7.72700        1.78580        2.77690
C          8.06110        0.41910        2.73250
N          8.05580       -0.51710        3.66310
O          8.49310       -1.62780        3.07580
N          8.78590       -1.45880        1.78540
C          8.52960       -0.19440        1.51210
C          8.66640        0.56420        0.31800
C          8.37410        1.90220        0.43230
C          7.89970        2.49450        1.62490
C          9.15150       -0.01370       -0.92020
C          8.93240       -1.25800       -1.36760
C          8.02780       -2.24170       -0.80990
C          6.77630       -1.90330       -0.23130
N          6.20150       -0.73420       -0.02580
O          5.03520       -0.99090        0.56780
N          4.82080       -2.29040        0.75060
C          5.87070       -2.91560        0.25770
C          6.19240       -4.29990        0.17830
C          7.43640       -4.57580       -0.35610
C          8.30010       -3.59210       -0.86230
C          5.32490       -5.35220        0.64610
C          3.97450       -5.36410        0.69530
C          3.05460       -4.42480        0.14380
S          1.55310       -4.16940        0.95980
C          1.07610       -2.90560       -0.11510
C          2.01320       -2.75200       -1.14810
C          3.12960       -3.63230       -1.01000
C          4.12440       -3.68050       -2.00680
C          4.05010       -2.82630       -3.07700
O          4.96100       -2.75050       -4.08380
C          6.07430       -3.60890       -4.04690
C          2.94360       -1.94920       -3.21130
C          1.94090       -1.92650       -2.29060
C         -0.12940       -2.18850        0.14670
C         -1.17890       -2.80420        0.88590
N         -1.24980       -4.00300        1.42460
O         -2.45390       -4.08990        1.98540
N         -3.17920       -2.98360        1.82780
C         -2.43350       -2.13980        1.14350
C         -2.66670       -0.81160        0.68730
C         -1.59420       -0.23180        0.02220
C         -0.38470       -0.87950       -0.23830
C         -3.89500       -0.10680        0.88030
C         -5.00020       -0.62730        1.45930
C         -6.25050        0.05340        1.62520
C         -7.37130       -0.67120        2.12020
N         -7.48770       -1.92220        2.51650
O         -8.75380       -2.07880        2.89240
N         -9.48220       -0.97120        2.75400
C         -8.66490       -0.05440        2.27330
C         -8.88550        1.29940        1.91320
C         -7.76120        1.98350        1.49330
C         -6.50080        1.38870        1.35230
C        -10.20080        1.87500        2.05530
C        -10.74670        2.84790        1.30660
C        -10.23170        3.41850        0.07980
C         -9.50430        2.67110       -0.88750
N         -9.15520        1.40040       -0.91890
O         -8.51550        1.21490       -2.06900
N         -8.43110        2.32410       -2.80260
C         -9.03910        3.27230       -2.11680
C         -9.28590        4.64200       -2.41070
C        -10.02390        5.31580       -1.46050
C        -10.49300        4.72550       -0.27490
C         -8.81990        5.29720       -3.61330
C         -8.11540        4.71220       -4.57840
H          7.36290        2.22560        3.68980
H          8.48100        2.53140       -0.43930
H          7.66800        3.54920        1.60820
H          9.77260        0.64460       -1.51480
H          9.46540       -1.58590       -2.25210
H          7.74880       -5.60830       -0.42460
H          9.23730       -3.91270       -1.29430
H          5.84540       -6.22940        1.00980
H          3.50850       -6.18440        1.22880
H          4.91670       -4.40370       -1.91350
H          6.68300       -3.44190       -3.15160
H          6.66020       -3.36910       -4.93270
H          5.77140       -4.66010       -4.08620
H          2.91300       -1.32290       -4.08860
H          1.07820       -1.30160       -2.45350
H         -1.69970        0.78810       -0.32000
H          0.39380       -0.31890       -0.73000
H         -3.90320        0.90510        0.49620
H         -4.97780       -1.64820        1.81350
H         -7.85170        3.03760        1.27110
H         -5.69090        2.01600        1.01200
H        -10.78440        1.45930        2.86650
H        -11.69750        3.25990        1.62230
H        -10.25900        6.35670       -1.63240
H        -11.06610        5.33950        0.40520
H         -9.08840        6.34370       -3.69060
H         -7.84170        3.67320       -4.52040
H         -7.80030        5.26070       -5.44960
