126

C          4.06250      -12.97680       -1.67130
S          3.72470      -11.98760       -0.32450
C          2.60690      -11.00210       -1.21660
C          2.51330      -11.45230       -2.53590
C          3.35860      -12.58670       -2.79010
C          3.40700      -13.16200       -4.07660
C          2.65070      -12.63070       -5.08950
O          2.75790      -13.23550       -6.30770
C          2.03270      -12.71790       -7.39580
C          1.81800      -11.50920       -4.83890
C          1.74860      -10.93800       -3.60270
C          1.98880       -9.90500       -0.55540
C          2.32530       -9.40990        0.67530
C          1.57250       -8.28130        1.07710
C          1.71290       -7.50910        2.24080
C          2.69670       -7.86590        3.31420
C          2.13010       -8.95250        4.22980
C          0.88160       -6.41370        2.35010
C         -0.08720       -6.05670        1.37780
C         -0.23890       -6.83690        0.22200
C         -1.27010       -6.51770       -0.81810
C         -2.64740       -7.03140       -0.39490
C          0.60430       -7.92250        0.10510
S          0.66380       -9.00110       -1.26750
C         -0.75160       -4.85640        1.71190
C         -0.31880       -4.26950        2.87340
S          0.91490       -5.24770        3.65340
C         -0.72090       -2.99610        3.34490
S         -1.93950       -2.14810        2.43280
C         -1.72000       -0.67020        3.31960
C         -0.77860       -0.85890        4.33950
C         -0.22580       -2.17780        4.36680
C          0.72420       -2.51900        5.34990
C          1.10730       -1.58090        6.27400
O          2.00880       -1.78960        7.26870
C          2.61840       -3.05420        7.36450
C          0.54430       -0.27740        6.25220
C         -0.37350        0.07740        5.31350
C         -2.32310        0.52200        2.86060
S         -1.48770        2.04170        3.00030
C         -2.59950        2.85310        1.94820
C         -3.65130        2.00390        1.58960
C         -3.48700        0.67710        2.09190
C         -4.46210       -0.30460        1.83070
C         -5.56730        0.02440        1.08760
O         -6.57560       -0.82850        0.76560
C         -6.48820       -2.16240        1.20410
C         -5.74190        1.35050        0.61210
C         -4.81810        2.31770        0.85950
C         -2.27680        4.14420        1.45150
C         -2.61750        4.68110        0.24030
C         -1.98370        5.91540       -0.03970
C         -2.06370        6.67760       -1.21360
C         -2.91420        6.26450       -2.37730
C         -2.16300        5.28110       -3.27700
C         -1.26120        7.79910       -1.26830
C         -0.41640        8.21930       -0.21010
C         -0.35430        7.46860        0.97370
C          0.49770        7.88640        2.13400
C         -0.21800        8.94030        2.98070
C         -1.13550        6.33130        1.01900
S         -1.16930        5.18220        2.33580
C          0.30620        9.38740       -0.55120
C          0.06440        9.85150       -1.81610
S         -1.12080        8.86130       -2.64710
C          0.67100       10.98400       -2.42530
S          1.64440       12.03490       -1.43880
C          2.02680       13.05340       -2.74870
C          1.44580       12.62580       -3.92170
C          0.65940       11.43470       -3.74880
C          0.02300       10.87270       -4.86900
C          0.15240       11.45970       -6.10530
O         -0.49410       10.83450       -7.12950
C         -0.39570       11.36090       -8.42960
C          0.92150       12.64170       -6.26690
C          1.55230       13.21090       -5.20390
H          4.75860      -13.78550       -1.57700
H          4.04110      -14.01220       -4.26810
H          2.29300      -13.34780       -8.24530
H          0.95220      -12.77280       -7.22680
H          2.31600      -11.68340       -7.61640
H          1.22520      -11.09250       -5.63750
H          1.10890      -10.08500       -3.44470
H          3.11740       -9.84050        1.26200
H          2.91710       -6.97450        3.90630
H          3.62760       -8.21550        2.86410
H          1.21560       -8.60390        4.70450
H          2.84870       -9.20640        5.00540
H          1.90090       -9.84950        3.65920
H         -1.31510       -5.43850       -0.97700
H         -0.98360       -6.98980       -1.76060
H         -2.62080       -8.11070       -0.26330
H         -2.95040       -6.57780        0.54610
H         -3.38970       -6.79270       -1.15300
H         -1.50470       -4.39940        1.09460
H          1.12250       -3.51840        5.36460
H          3.18010       -3.29790        6.45720
H          3.30320       -2.98880        8.20840
H          1.88140       -3.84100        7.55440
H          0.86730        0.41560        7.01220
H         -0.80510        1.06590        5.31780
H         -4.33210       -1.29070        2.24330
H         -5.59240       -2.65470        0.81230
H         -7.37500       -2.66020        0.81550
H         -6.48670       -2.22560        2.29710
H         -6.64620        1.56450        0.06500
H         -4.98850        3.33110        0.53380
H         -3.23970        4.16540       -0.46690
H         -3.17680        7.15160       -2.95830
H         -3.83730        5.80480       -2.02010
H         -1.88200        4.39070       -2.71900
H         -2.78680        4.98490       -4.11700
H         -1.25830        5.74430       -3.66360
H          1.44590        8.28920        1.77310
H          0.71080        7.01160        2.75270
H         -0.44440        9.82000        2.38240
H          0.40630        9.23930        3.81920
H         -1.15130        8.53870        3.36900
H          1.00600        9.87110        0.10720
H          2.65660       13.90680       -2.59620
H         -0.56720        9.97610       -4.78610
H         -0.97800       10.69010       -9.05980
H          0.64030       11.37600       -8.78400
H         -0.81860       12.36900       -8.49300
H          1.01250       13.09580       -7.24080
H          2.14130       14.10760       -5.32460
