
  xtb     03012221433D
 energy: -204.889607902846 gnorm: 0.000180682898 xtb: 6.4.1 (unknown)
126139  0     0  0            999 V2000
    4.0625  -12.9768   -1.6713 C   0  0  0  0  0  0  0  0  0  0  0  0
    3.7247  -11.9876   -0.3245 S   0  0  0  0  0  0  0  0  0  0  0  0
    2.6069  -11.0021   -1.2166 C   0  0  0  0  0  0  0  0  0  0  0  0
    2.5133  -11.4523   -2.5359 C   0  0  0  0  0  0  0  0  0  0  0  0
    3.3586  -12.5867   -2.7901 C   0  0  0  0  0  0  0  0  0  0  0  0
    3.4070  -13.1620   -4.0766 C   0  0  0  0  0  0  0  0  0  0  0  0
    2.6507  -12.6307   -5.0895 C   0  0  0  0  0  0  0  0  0  0  0  0
    2.7579  -13.2355   -6.3077 O   0  0  0  0  0  0  0  0  0  0  0  0
    2.0327  -12.7179   -7.3958 C   0  0  0  0  0  0  0  0  0  0  0  0
    1.8180  -11.5092   -4.8389 C   0  0  0  0  0  0  0  0  0  0  0  0
    1.7486  -10.9380   -3.6027 C   0  0  0  0  0  0  0  0  0  0  0  0
    1.9888   -9.9050   -0.5554 C   0  0  0  0  0  0  0  0  0  0  0  0
    2.3253   -9.4099    0.6753 C   0  0  0  0  0  0  0  0  0  0  0  0
    1.5725   -8.2813    1.0771 C   0  0  0  0  0  0  0  0  0  0  0  0
    1.7129   -7.5091    2.2408 C   0  0  0  0  0  0  0  0  0  0  0  0
    2.6967   -7.8659    3.3142 C   0  0  0  0  0  0  0  0  0  0  0  0
    2.1301   -8.9525    4.2298 C   0  0  0  0  0  0  0  0  0  0  0  0
    0.8816   -6.4137    2.3501 C   0  0  0  0  0  0  0  0  0  0  0  0
   -0.0872   -6.0567    1.3778 C   0  0  0  0  0  0  0  0  0  0  0  0
   -0.2389   -6.8369    0.2220 C   0  0  0  0  0  0  0  0  0  0  0  0
   -1.2701   -6.5177   -0.8181 C   0  0  0  0  0  0  0  0  0  0  0  0
   -2.6474   -7.0314   -0.3949 C   0  0  0  0  0  0  0  0  0  0  0  0
    0.6043   -7.9225    0.1051 C   0  0  0  0  0  0  0  0  0  0  0  0
    0.6638   -9.0011   -1.2675 S   0  0  0  0  0  0  0  0  0  0  0  0
   -0.7516   -4.8564    1.7119 C   0  0  0  0  0  0  0  0  0  0  0  0
   -0.3188   -4.2695    2.8734 C   0  0  0  0  0  0  0  0  0  0  0  0
    0.9149   -5.2477    3.6534 S   0  0  0  0  0  0  0  0  0  0  0  0
   -0.7209   -2.9961    3.3449 C   0  0  0  0  0  0  0  0  0  0  0  0
   -1.9395   -2.1481    2.4328 S   0  0  0  0  0  0  0  0  0  0  0  0
   -1.7200   -0.6702    3.3196 C   0  0  0  0  0  0  0  0  0  0  0  0
   -0.7786   -0.8589    4.3395 C   0  0  0  0  0  0  0  0  0  0  0  0
   -0.2258   -2.1778    4.3668 C   0  0  0  0  0  0  0  0  0  0  0  0
    0.7242   -2.5190    5.3499 C   0  0  0  0  0  0  0  0  0  0  0  0
    1.1073   -1.5809    6.2740 C   0  0  0  0  0  0  0  0  0  0  0  0
    2.0088   -1.7896    7.2687 O   0  0  0  0  0  0  0  0  0  0  0  0
    2.6184   -3.0542    7.3645 C   0  0  0  0  0  0  0  0  0  0  0  0
    0.5443   -0.2774    6.2522 C   0  0  0  0  0  0  0  0  0  0  0  0
   -0.3735    0.0774    5.3135 C   0  0  0  0  0  0  0  0  0  0  0  0
   -2.3231    0.5220    2.8606 C   0  0  0  0  0  0  0  0  0  0  0  0
   -1.4877    2.0417    3.0003 S   0  0  0  0  0  0  0  0  0  0  0  0
   -2.5995    2.8531    1.9482 C   0  0  0  0  0  0  0  0  0  0  0  0
   -3.6513    2.0039    1.5896 C   0  0  0  0  0  0  0  0  0  0  0  0
   -3.4870    0.6771    2.0919 C   0  0  0  0  0  0  0  0  0  0  0  0
   -4.4621   -0.3046    1.8307 C   0  0  0  0  0  0  0  0  0  0  0  0
   -5.5673    0.0244    1.0876 C   0  0  0  0  0  0  0  0  0  0  0  0
   -6.5756   -0.8285    0.7656 O   0  0  0  0  0  0  0  0  0  0  0  0
   -6.4882   -2.1624    1.2041 C   0  0  0  0  0  0  0  0  0  0  0  0
   -5.7419    1.3505    0.6121 C   0  0  0  0  0  0  0  0  0  0  0  0
   -4.8181    2.3177    0.8595 C   0  0  0  0  0  0  0  0  0  0  0  0
   -2.2768    4.1442    1.4515 C   0  0  0  0  0  0  0  0  0  0  0  0
   -2.6175    4.6811    0.2403 C   0  0  0  0  0  0  0  0  0  0  0  0
   -1.9837    5.9154   -0.0397 C   0  0  0  0  0  0  0  0  0  0  0  0
   -2.0637    6.6776   -1.2136 C   0  0  0  0  0  0  0  0  0  0  0  0
   -2.9142    6.2645   -2.3773 C   0  0  0  0  0  0  0  0  0  0  0  0
   -2.1630    5.2811   -3.2770 C   0  0  0  0  0  0  0  0  0  0  0  0
   -1.2612    7.7991   -1.2683 C   0  0  0  0  0  0  0  0  0  0  0  0
   -0.4164    8.2193   -0.2101 C   0  0  0  0  0  0  0  0  0  0  0  0
   -0.3543    7.4686    0.9737 C   0  0  0  0  0  0  0  0  0  0  0  0
    0.4977    7.8864    2.1340 C   0  0  0  0  0  0  0  0  0  0  0  0
   -0.2180    8.9403    2.9807 C   0  0  0  0  0  0  0  0  0  0  0  0
   -1.1355    6.3313    1.0190 C   0  0  0  0  0  0  0  0  0  0  0  0
   -1.1693    5.1822    2.3358 S   0  0  0  0  0  0  0  0  0  0  0  0
    0.3062    9.3874   -0.5512 C   0  0  0  0  0  0  0  0  0  0  0  0
    0.0644    9.8515   -1.8161 C   0  0  0  0  0  0  0  0  0  0  0  0
   -1.1208    8.8613   -2.6471 S   0  0  0  0  0  0  0  0  0  0  0  0
    0.6710   10.9840   -2.4253 C   0  0  0  0  0  0  0  0  0  0  0  0
    1.6444   12.0349   -1.4388 S   0  0  0  0  0  0  0  0  0  0  0  0
    2.0268   13.0534   -2.7487 C   0  0  0  0  0  0  0  0  0  0  0  0
    1.4458   12.6258   -3.9217 C   0  0  0  0  0  0  0  0  0  0  0  0
    0.6594   11.4347   -3.7488 C   0  0  0  0  0  0  0  0  0  0  0  0
    0.0230   10.8727   -4.8690 C   0  0  0  0  0  0  0  0  0  0  0  0
    0.1524   11.4597   -6.1053 C   0  0  0  0  0  0  0  0  0  0  0  0
   -0.4941   10.8345   -7.1295 O   0  0  0  0  0  0  0  0  0  0  0  0
   -0.3957   11.3609   -8.4296 C   0  0  0  0  0  0  0  0  0  0  0  0
    0.9215   12.6417   -6.2669 C   0  0  0  0  0  0  0  0  0  0  0  0
    1.5523   13.2109   -5.2039 C   0  0  0  0  0  0  0  0  0  0  0  0
    4.7586  -13.7855   -1.5770 H   0  0  0  0  0  0  0  0  0  0  0  0
    4.0411  -14.0122   -4.2681 H   0  0  0  0  0  0  0  0  0  0  0  0
    2.2930  -13.3478   -8.2453 H   0  0  0  0  0  0  0  0  0  0  0  0
    0.9522  -12.7728   -7.2268 H   0  0  0  0  0  0  0  0  0  0  0  0
    2.3160  -11.6834   -7.6164 H   0  0  0  0  0  0  0  0  0  0  0  0
    1.2252  -11.0925   -5.6375 H   0  0  0  0  0  0  0  0  0  0  0  0
    1.1089  -10.0850   -3.4447 H   0  0  0  0  0  0  0  0  0  0  0  0
    3.1174   -9.8405    1.2620 H   0  0  0  0  0  0  0  0  0  0  0  0
    2.9171   -6.9745    3.9063 H   0  0  0  0  0  0  0  0  0  0  0  0
    3.6276   -8.2155    2.8641 H   0  0  0  0  0  0  0  0  0  0  0  0
    1.2156   -8.6039    4.7045 H   0  0  0  0  0  0  0  0  0  0  0  0
    2.8487   -9.2064    5.0054 H   0  0  0  0  0  0  0  0  0  0  0  0
    1.9009   -9.8495    3.6592 H   0  0  0  0  0  0  0  0  0  0  0  0
   -1.3151   -5.4385   -0.9770 H   0  0  0  0  0  0  0  0  0  0  0  0
   -0.9836   -6.9898   -1.7606 H   0  0  0  0  0  0  0  0  0  0  0  0
   -2.6208   -8.1107   -0.2633 H   0  0  0  0  0  0  0  0  0  0  0  0
   -2.9504   -6.5778    0.5461 H   0  0  0  0  0  0  0  0  0  0  0  0
   -3.3897   -6.7927   -1.1530 H   0  0  0  0  0  0  0  0  0  0  0  0
   -1.5047   -4.3994    1.0946 H   0  0  0  0  0  0  0  0  0  0  0  0
    1.1225   -3.5184    5.3646 H   0  0  0  0  0  0  0  0  0  0  0  0
    3.1801   -3.2979    6.4572 H   0  0  0  0  0  0  0  0  0  0  0  0
    3.3032   -2.9888    8.2084 H   0  0  0  0  0  0  0  0  0  0  0  0
    1.8814   -3.8410    7.5544 H   0  0  0  0  0  0  0  0  0  0  0  0
    0.8673    0.4156    7.0122 H   0  0  0  0  0  0  0  0  0  0  0  0
   -0.8051    1.0659    5.3178 H   0  0  0  0  0  0  0  0  0  0  0  0
   -4.3321   -1.2907    2.2433 H   0  0  0  0  0  0  0  0  0  0  0  0
   -5.5924   -2.6547    0.8123 H   0  0  0  0  0  0  0  0  0  0  0  0
   -7.3750   -2.6602    0.8155 H   0  0  0  0  0  0  0  0  0  0  0  0
   -6.4867   -2.2256    2.2971 H   0  0  0  0  0  0  0  0  0  0  0  0
   -6.6462    1.5645    0.0650 H   0  0  0  0  0  0  0  0  0  0  0  0
   -4.9885    3.3311    0.5338 H   0  0  0  0  0  0  0  0  0  0  0  0
   -3.2397    4.1654   -0.4669 H   0  0  0  0  0  0  0  0  0  0  0  0
   -3.1768    7.1516   -2.9583 H   0  0  0  0  0  0  0  0  0  0  0  0
   -3.8373    5.8048   -2.0201 H   0  0  0  0  0  0  0  0  0  0  0  0
   -1.8820    4.3907   -2.7190 H   0  0  0  0  0  0  0  0  0  0  0  0
   -2.7868    4.9849   -4.1170 H   0  0  0  0  0  0  0  0  0  0  0  0
   -1.2583    5.7443   -3.6636 H   0  0  0  0  0  0  0  0  0  0  0  0
    1.4459    8.2892    1.7731 H   0  0  0  0  0  0  0  0  0  0  0  0
    0.7108    7.0116    2.7527 H   0  0  0  0  0  0  0  0  0  0  0  0
   -0.4444    9.8200    2.3824 H   0  0  0  0  0  0  0  0  0  0  0  0
    0.4063    9.2393    3.8192 H   0  0  0  0  0  0  0  0  0  0  0  0
   -1.1513    8.5387    3.3690 H   0  0  0  0  0  0  0  0  0  0  0  0
    1.0060    9.8711    0.1072 H   0  0  0  0  0  0  0  0  0  0  0  0
    2.6566   13.9068   -2.5962 H   0  0  0  0  0  0  0  0  0  0  0  0
   -0.5672    9.9761   -4.7861 H   0  0  0  0  0  0  0  0  0  0  0  0
   -0.9780   10.6901   -9.0598 H   0  0  0  0  0  0  0  0  0  0  0  0
    0.6403   11.3760   -8.7840 H   0  0  0  0  0  0  0  0  0  0  0  0
   -0.8186   12.3690   -8.4930 H   0  0  0  0  0  0  0  0  0  0  0  0
    1.0125   13.0958   -7.2408 H   0  0  0  0  0  0  0  0  0  0  0  0
    2.1413   14.1076   -5.3246 H   0  0  0  0  0  0  0  0  0  0  0  0
  1  2  1  0  0  0  0
  2  3  1  0  0  0  0
  3  4  2  0  0  0  0
  4  5  1  0  0  0  0
  5  6  1  0  0  0  0
  6  7  2  0  0  0  0
  7  8  1  0  0  0  0
  8  9  1  0  0  0  0
  7 10  1  0  0  0  0
 10 11  2  0  0  0  0
  3 12  1  0  0  0  0
 12 13  2  0  0  0  0
 13 14  1  0  0  0  0
 14 15  2  0  0  0  0
 15 16  1  0  0  0  0
 16 17  1  0  0  0  0
 15 18  1  0  0  0  0
 18 19  2  0  0  0  0
 19 20  1  0  0  0  0
 20 21  1  0  0  0  0
 21 22  1  0  0  0  0
 20 23  2  0  0  0  0
 23 24  1  0  0  0  0
 19 25  1  0  0  0  0
 25 26  2  0  0  0  0
 26 27  1  0  0  0  0
 26 28  1  0  0  0  0
 28 29  1  0  0  0  0
 29 30  1  0  0  0  0
 30 31  2  0  0  0  0
 31 32  1  0  0  0  0
 32 33  1  0  0  0  0
 33 34  2  0  0  0  0
 34 35  1  0  0  0  0
 35 36  1  0  0  0  0
 34 37  1  0  0  0  0
 37 38  2  0  0  0  0
 30 39  1  0  0  0  0
 39 40  1  0  0  0  0
 40 41  1  0  0  0  0
 41 42  2  0  0  0  0
 42 43  1  0  0  0  0
 43 44  1  0  0  0  0
 44 45  2  0  0  0  0
 45 46  1  0  0  0  0
 46 47  1  0  0  0  0
 45 48  1  0  0  0  0
 48 49  2  0  0  0  0
 41 50  1  0  0  0  0
 50 51  2  0  0  0  0
 51 52  1  0  0  0  0
 52 53  2  0  0  0  0
 53 54  1  0  0  0  0
 54 55  1  0  0  0  0
 53 56  1  0  0  0  0
 56 57  2  0  0  0  0
 57 58  1  0  0  0  0
 58 59  1  0  0  0  0
 59 60  1  0  0  0  0
 58 61  2  0  0  0  0
 61 62  1  0  0  0  0
 57 63  1  0  0  0  0
 63 64  2  0  0  0  0
 64 65  1  0  0  0  0
 64 66  1  0  0  0  0
 66 67  1  0  0  0  0
 67 68  1  0  0  0  0
 68 69  2  0  0  0  0
 69 70  1  0  0  0  0
 70 71  1  0  0  0  0
 71 72  2  0  0  0  0
 72 73  1  0  0  0  0
 73 74  1  0  0  0  0
 72 75  1  0  0  0  0
 75 76  2  0  0  0  0
  5  1  2  0  0  0  0
 24 12  1  0  0  0  0
 32 28  2  0  0  0  0
 43 39  2  0  0  0  0
 62 50  1  0  0  0  0
 70 66  2  0  0  0  0
 11  4  1  0  0  0  0
 23 14  1  0  0  0  0
 38 31  1  0  0  0  0
 49 42  1  0  0  0  0
 61 52  1  0  0  0  0
 76 69  1  0  0  0  0
 27 18  1  0  0  0  0
 65 56  1  0  0  0  0
  1 77  1  0  0  0  0
  6 78  1  0  0  0  0
  9 79  1  0  0  0  0
  9 80  1  0  0  0  0
  9 81  1  0  0  0  0
 10 82  1  0  0  0  0
 11 83  1  0  0  0  0
 13 84  1  0  0  0  0
 16 85  1  0  0  0  0
 16 86  1  0  0  0  0
 17 87  1  0  0  0  0
 17 88  1  0  0  0  0
 17 89  1  0  0  0  0
 21 90  1  0  0  0  0
 21 91  1  0  0  0  0
 22 92  1  0  0  0  0
 22 93  1  0  0  0  0
 22 94  1  0  0  0  0
 25 95  1  0  0  0  0
 33 96  1  0  0  0  0
 36 97  1  0  0  0  0
 36 98  1  0  0  0  0
 36 99  1  0  0  0  0
 37100  1  0  0  0  0
 38101  1  0  0  0  0
 44102  1  0  0  0  0
 47103  1  0  0  0  0
 47104  1  0  0  0  0
 47105  1  0  0  0  0
 48106  1  0  0  0  0
 49107  1  0  0  0  0
 51108  1  0  0  0  0
 54109  1  0  0  0  0
 54110  1  0  0  0  0
 55111  1  0  0  0  0
 55112  1  0  0  0  0
 55113  1  0  0  0  0
 59114  1  0  0  0  0
 59115  1  0  0  0  0
 60116  1  0  0  0  0
 60117  1  0  0  0  0
 60118  1  0  0  0  0
 63119  1  0  0  0  0
 68120  1  0  0  0  0
 71121  1  0  0  0  0
 74122  1  0  0  0  0
 74123  1  0  0  0  0
 74124  1  0  0  0  0
 75125  1  0  0  0  0
 76126  1  0  0  0  0
M  END
