
  xtb     03022204293D
 energy: -244.600455792923 gnorm: 0.000432133663 xtb: 6.4.1 (unknown)
160167  0     0  0            999 V2000
   -4.1849    0.2095   -2.0115 C   0  0  0  0  0  0  0  0  0  0  0  0
   -3.3244    0.3694   -3.0879 C   0  0  0  0  0  0  0  0  0  0  0  0
   -3.5317   -0.1558   -4.3286 O   0  0  0  0  0  0  0  0  0  0  0  0
   -4.7470   -0.8216   -4.5919 C   0  0  0  0  0  0  0  0  0  0  0  0
   -4.7546   -1.1933   -6.0669 C   0  0  0  0  0  0  0  0  0  0  0  0
   -2.1431    1.1056   -2.9292 C   0  0  0  0  0  0  0  0  0  0  0  0
   -1.2729    1.2233   -3.9962 O   0  0  0  0  0  0  0  0  0  0  0  0
   -1.2866    2.4915   -4.6314 C   0  0  0  0  0  0  0  0  0  0  0  0
   -2.6231    2.8114   -5.2931 C   0  0  0  0  0  0  0  0  0  0  0  0
   -1.8422    1.6899   -1.6903 C   0  0  0  0  0  0  0  0  0  0  0  0
   -0.6768    2.3977   -1.6490 O   0  0  0  0  0  0  0  0  0  0  0  0
   -0.1346    2.8005   -0.4062 C   0  0  0  0  0  0  0  0  0  0  0  0
    0.4058    1.6341    0.4125 C   0  0  0  0  0  0  0  0  0  0  0  0
   -2.7324    1.5456   -0.6335 C   0  0  0  0  0  0  0  0  0  0  0  0
   -3.8959    0.8049   -0.7917 C   0  0  0  0  0  0  0  0  0  0  0  0
   -4.8234    0.6246    0.3452 C   0  0  0  0  0  0  0  0  0  0  0  0
   -6.1472    1.0749    0.2195 C   0  0  0  0  0  0  0  0  0  0  0  0
   -6.4057    1.6999   -0.9615 O   0  0  0  0  0  0  0  0  0  0  0  0
   -7.7206    1.8369   -1.4677 C   0  0  0  0  0  0  0  0  0  0  0  0
   -7.5893    2.3203   -2.9050 C   0  0  0  0  0  0  0  0  0  0  0  0
   -7.0496    0.9307    1.2827 C   0  0  0  0  0  0  0  0  0  0  0  0
   -8.3194    1.4414    1.1469 O   0  0  0  0  0  0  0  0  0  0  0  0
   -9.4202    0.6687    1.6068 C   0  0  0  0  0  0  0  0  0  0  0  0
  -10.6425    1.0525    0.7840 C   0  0  0  0  0  0  0  0  0  0  0  0
   -6.6071    0.3278    2.4786 C   0  0  0  0  0  0  0  0  0  0  0  0
   -7.5189    0.2734    3.4971 O   0  0  0  0  0  0  0  0  0  0  0  0
   -7.1952   -0.3925    4.7005 C   0  0  0  0  0  0  0  0  0  0  0  0
   -7.2680   -1.9116    4.5733 C   0  0  0  0  0  0  0  0  0  0  0  0
   -5.3068   -0.1300    2.5810 C   0  0  0  0  0  0  0  0  0  0  0  0
   -4.4014    0.0258    1.5317 C   0  0  0  0  0  0  0  0  0  0  0  0
   -3.0459   -0.4629    1.6995 C   0  0  0  0  0  0  0  0  0  0  0  0
   -2.2676   -1.3925    0.4727 S   0  0  0  0  0  0  0  0  0  0  0  0
   -0.7878   -1.5609    1.3707 C   0  0  0  0  0  0  0  0  0  0  0  0
   -0.9262   -0.9323    2.6236 C   0  0  0  0  0  0  0  0  0  0  0  0
   -2.2037   -0.2993    2.7927 C   0  0  0  0  0  0  0  0  0  0  0  0
   -2.4691    0.4607    3.9498 C   0  0  0  0  0  0  0  0  0  0  0  0
   -1.5318    0.5497    4.9469 C   0  0  0  0  0  0  0  0  0  0  0  0
   -1.8708    1.3102    6.0309 O   0  0  0  0  0  0  0  0  0  0  0  0
   -0.9348    1.4708    7.0674 C   0  0  0  0  0  0  0  0  0  0  0  0
   -0.3007   -0.1342    4.8148 C   0  0  0  0  0  0  0  0  0  0  0  0
   -0.0061   -0.8446    3.6861 C   0  0  0  0  0  0  0  0  0  0  0  0
    0.3504   -2.1697    0.7840 C   0  0  0  0  0  0  0  0  0  0  0  0
    1.8871   -2.1282    1.6075 S   0  0  0  0  0  0  0  0  0  0  0  0
    2.7200   -2.9216    0.3341 C   0  0  0  0  0  0  0  0  0  0  0  0
    1.8533   -3.2275   -0.6979 C   0  0  0  0  0  0  0  0  0  0  0  0
    0.5066   -2.7935   -0.4659 C   0  0  0  0  0  0  0  0  0  0  0  0
   -0.4555   -3.0113   -1.4742 C   0  0  0  0  0  0  0  0  0  0  0  0
   -0.0988   -3.6418   -2.6384 C   0  0  0  0  0  0  0  0  0  0  0  0
   -0.9383   -3.8921   -3.6781 O   0  0  0  0  0  0  0  0  0  0  0  0
   -2.2288   -3.3309   -3.6467 C   0  0  0  0  0  0  0  0  0  0  0  0
    1.2308   -4.1024   -2.8431 C   0  0  0  0  0  0  0  0  0  0  0  0
    2.1856   -3.8973   -1.9030 C   0  0  0  0  0  0  0  0  0  0  0  0
    4.1747   -3.0932    0.4203 C   0  0  0  0  0  0  0  0  0  0  0  0
    4.7356   -4.1859    1.1039 C   0  0  0  0  0  0  0  0  0  0  0  0
    3.9476   -5.1306    1.7228 O   0  0  0  0  0  0  0  0  0  0  0  0
    3.0291   -5.8933    0.9478 C   0  0  0  0  0  0  0  0  0  0  0  0
    1.6655   -5.9239    1.6234 C   0  0  0  0  0  0  0  0  0  0  0  0
    6.1217   -4.2652    1.2794 C   0  0  0  0  0  0  0  0  0  0  0  0
    6.7836   -5.2203    1.9986 O   0  0  0  0  0  0  0  0  0  0  0  0
    6.4027   -6.5794    1.8966 C   0  0  0  0  0  0  0  0  0  0  0  0
    6.5020   -7.1056    0.4682 C   0  0  0  0  0  0  0  0  0  0  0  0
    6.9436   -3.2370    0.7691 C   0  0  0  0  0  0  0  0  0  0  0  0
    8.2761   -3.4109    0.9768 O   0  0  0  0  0  0  0  0  0  0  0  0
    9.1545   -2.3244    0.7673 C   0  0  0  0  0  0  0  0  0  0  0  0
    8.9690   -1.2042    1.7868 C   0  0  0  0  0  0  0  0  0  0  0  0
    6.3759   -2.1672    0.1037 C   0  0  0  0  0  0  0  0  0  0  0  0
    4.9996   -2.0734   -0.0578 C   0  0  0  0  0  0  0  0  0  0  0  0
    4.4422   -0.8349   -0.6400 C   0  0  0  0  0  0  0  0  0  0  0  0
    4.7847    0.3997   -0.0668 C   0  0  0  0  0  0  0  0  0  0  0  0
    5.6863    0.4060    0.9717 O   0  0  0  0  0  0  0  0  0  0  0  0
    5.2741    0.9903    2.1988 C   0  0  0  0  0  0  0  0  0  0  0  0
    4.1031    0.2458    2.8282 C   0  0  0  0  0  0  0  0  0  0  0  0
    4.2727    1.5925   -0.5936 C   0  0  0  0  0  0  0  0  0  0  0  0
    4.6633    2.7612    0.0129 O   0  0  0  0  0  0  0  0  0  0  0  0
    4.9858    3.8769   -0.8031 C   0  0  0  0  0  0  0  0  0  0  0  0
    6.0014    4.7209   -0.0461 C   0  0  0  0  0  0  0  0  0  0  0  0
    3.3737    1.5528   -1.6758 C   0  0  0  0  0  0  0  0  0  0  0  0
    2.8578    2.7499   -2.0838 O   0  0  0  0  0  0  0  0  0  0  0  0
    2.1085    2.8178   -3.2842 C   0  0  0  0  0  0  0  0  0  0  0  0
    2.9822    2.7019   -4.5292 C   0  0  0  0  0  0  0  0  0  0  0  0
    3.0643    0.3253   -2.2469 C   0  0  0  0  0  0  0  0  0  0  0  0
    3.6046   -0.8420   -1.7442 C   0  0  0  0  0  0  0  0  0  0  0  0
   -5.0862   -0.3732   -2.1032 H   0  0  0  0  0  0  0  0  0  0  0  0
   -4.8290   -1.7269   -3.9732 H   0  0  0  0  0  0  0  0  0  0  0  0
   -5.5971   -0.1635   -4.3626 H   0  0  0  0  0  0  0  0  0  0  0  0
   -5.6570   -1.7486   -6.3065 H   0  0  0  0  0  0  0  0  0  0  0  0
   -4.7158   -0.2954   -6.6774 H   0  0  0  0  0  0  0  0  0  0  0  0
   -3.8852   -1.8028   -6.2962 H   0  0  0  0  0  0  0  0  0  0  0  0
   -0.4971    2.4266   -5.3847 H   0  0  0  0  0  0  0  0  0  0  0  0
   -1.0272    3.2768   -3.9097 H   0  0  0  0  0  0  0  0  0  0  0  0
   -2.5434    3.7399   -5.8527 H   0  0  0  0  0  0  0  0  0  0  0  0
   -3.4013    2.9194   -4.5401 H   0  0  0  0  0  0  0  0  0  0  0  0
   -2.9021    2.0065   -5.9679 H   0  0  0  0  0  0  0  0  0  0  0  0
    0.6876    3.4663   -0.6816 H   0  0  0  0  0  0  0  0  0  0  0  0
   -0.8705    3.3743    0.1711 H   0  0  0  0  0  0  0  0  0  0  0  0
   -0.3983    0.9756    0.7259 H   0  0  0  0  0  0  0  0  0  0  0  0
    1.1136    1.0591   -0.1807 H   0  0  0  0  0  0  0  0  0  0  0  0
    0.9131    2.0113    1.2963 H   0  0  0  0  0  0  0  0  0  0  0  0
   -2.5361    2.0006    0.3243 H   0  0  0  0  0  0  0  0  0  0  0  0
   -8.2384    0.8693   -1.4387 H   0  0  0  0  0  0  0  0  0  0  0  0
   -8.2906    2.5589   -0.8744 H   0  0  0  0  0  0  0  0  0  0  0  0
   -7.0169    1.6057   -3.4909 H   0  0  0  0  0  0  0  0  0  0  0  0
   -7.0682    3.2731   -2.9257 H   0  0  0  0  0  0  0  0  0  0  0  0
   -8.5738    2.4401   -3.3485 H   0  0  0  0  0  0  0  0  0  0  0  0
   -9.6041    0.8760    2.6665 H   0  0  0  0  0  0  0  0  0  0  0  0
   -9.2031   -0.4004    1.4936 H   0  0  0  0  0  0  0  0  0  0  0  0
  -11.5152    0.5237    1.1572 H   0  0  0  0  0  0  0  0  0  0  0  0
  -10.8152    2.1223    0.8619 H   0  0  0  0  0  0  0  0  0  0  0  0
  -10.4963    0.8012   -0.2634 H   0  0  0  0  0  0  0  0  0  0  0  0
   -6.2125   -0.0762    5.0695 H   0  0  0  0  0  0  0  0  0  0  0  0
   -7.9538   -0.0446    5.4078 H   0  0  0  0  0  0  0  0  0  0  0  0
   -6.5463   -2.2764    3.8468 H   0  0  0  0  0  0  0  0  0  0  0  0
   -7.0605   -2.3690    5.5367 H   0  0  0  0  0  0  0  0  0  0  0  0
   -8.2629   -2.2076    4.2490 H   0  0  0  0  0  0  0  0  0  0  0  0
   -4.9631   -0.6233    3.4740 H   0  0  0  0  0  0  0  0  0  0  0  0
   -3.4004    0.9936    4.0490 H   0  0  0  0  0  0  0  0  0  0  0  0
   -0.7018    0.5184    7.5551 H   0  0  0  0  0  0  0  0  0  0  0  0
   -1.4090    2.1343    7.7894 H   0  0  0  0  0  0  0  0  0  0  0  0
   -0.0088    1.9325    6.7092 H   0  0  0  0  0  0  0  0  0  0  0  0
    0.4282   -0.0957    5.6082 H   0  0  0  0  0  0  0  0  0  0  0  0
    0.9430   -1.3487    3.6296 H   0  0  0  0  0  0  0  0  0  0  0  0
   -1.4650   -2.6751   -1.3264 H   0  0  0  0  0  0  0  0  0  0  0  0
   -2.8203   -3.7261   -2.8138 H   0  0  0  0  0  0  0  0  0  0  0  0
   -2.6949   -3.6195   -4.5877 H   0  0  0  0  0  0  0  0  0  0  0  0
   -2.1811   -2.2404   -3.5783 H   0  0  0  0  0  0  0  0  0  0  0  0
    1.4464   -4.6032   -3.7735 H   0  0  0  0  0  0  0  0  0  0  0  0
    3.2041   -4.2257   -2.0580 H   0  0  0  0  0  0  0  0  0  0  0  0
    3.4224   -6.9188    0.8818 H   0  0  0  0  0  0  0  0  0  0  0  0
    2.9470   -5.4953   -0.0655 H   0  0  0  0  0  0  0  0  0  0  0  0
    1.2311   -4.9294    1.6633 H   0  0  0  0  0  0  0  0  0  0  0  0
    1.7671   -6.2967    2.6391 H   0  0  0  0  0  0  0  0  0  0  0  0
    0.9982   -6.5765    1.0669 H   0  0  0  0  0  0  0  0  0  0  0  0
    7.1224   -7.0969    2.5372 H   0  0  0  0  0  0  0  0  0  0  0  0
    5.3979   -6.7354    2.3014 H   0  0  0  0  0  0  0  0  0  0  0  0
    6.2817   -8.1697    0.4483 H   0  0  0  0  0  0  0  0  0  0  0  0
    5.7982   -6.5871   -0.1801 H   0  0  0  0  0  0  0  0  0  0  0  0
    7.5064   -6.9424    0.0842 H   0  0  0  0  0  0  0  0  0  0  0  0
    9.0591   -1.9372   -0.2557 H   0  0  0  0  0  0  0  0  0  0  0  0
   10.1489   -2.7672    0.8749 H   0  0  0  0  0  0  0  0  0  0  0  0
    9.7395   -0.4510    1.6447 H   0  0  0  0  0  0  0  0  0  0  0  0
    9.0504   -1.6100    2.7922 H   0  0  0  0  0  0  0  0  0  0  0  0
    7.9933   -0.7379    1.6773 H   0  0  0  0  0  0  0  0  0  0  0  0
    6.9826   -1.3719   -0.2937 H   0  0  0  0  0  0  0  0  0  0  0  0
    6.1599    0.9172    2.8361 H   0  0  0  0  0  0  0  0  0  0  0  0
    5.0189    2.0447    2.0567 H   0  0  0  0  0  0  0  0  0  0  0  0
    3.2129    0.3568    2.2127 H   0  0  0  0  0  0  0  0  0  0  0  0
    3.8988    0.6494    3.8162 H   0  0  0  0  0  0  0  0  0  0  0  0
    4.3346   -0.8137    2.9162 H   0  0  0  0  0  0  0  0  0  0  0  0
    5.4091    3.5361   -1.7550 H   0  0  0  0  0  0  0  0  0  0  0  0
    4.0833    4.4631   -1.0118 H   0  0  0  0  0  0  0  0  0  0  0  0
    5.5788    5.0475    0.9002 H   0  0  0  0  0  0  0  0  0  0  0  0
    6.8952    4.1368    0.1577 H   0  0  0  0  0  0  0  0  0  0  0  0
    6.2700    5.5930   -0.6360 H   0  0  0  0  0  0  0  0  0  0  0  0
    1.6466    3.8084   -3.2493 H   0  0  0  0  0  0  0  0  0  0  0  0
    1.3091    2.0707   -3.2868 H   0  0  0  0  0  0  0  0  0  0  0  0
    3.4887    1.7403   -4.5608 H   0  0  0  0  0  0  0  0  0  0  0  0
    2.3642    2.8030   -5.4168 H   0  0  0  0  0  0  0  0  0  0  0  0
    3.7347    3.4875   -4.5319 H   0  0  0  0  0  0  0  0  0  0  0  0
    2.3847    0.2634   -3.0808 H   0  0  0  0  0  0  0  0  0  0  0  0
    3.3700   -1.7739   -2.2308 H   0  0  0  0  0  0  0  0  0  0  0  0
  1  2  2  0  0  0  0
  2  3  1  0  0  0  0
  3  4  1  0  0  0  0
  4  5  1  0  0  0  0
  2  6  1  0  0  0  0
  6  7  1  0  0  0  0
  7  8  1  0  0  0  0
  8  9  1  0  0  0  0
  6 10  2  0  0  0  0
 10 11  1  0  0  0  0
 11 12  1  0  0  0  0
 12 13  1  0  0  0  0
 10 14  1  0  0  0  0
 14 15  2  0  0  0  0
 15 16  1  0  0  0  0
 16 17  2  0  0  0  0
 17 18  1  0  0  0  0
 18 19  1  0  0  0  0
 19 20  1  0  0  0  0
 17 21  1  0  0  0  0
 21 22  1  0  0  0  0
 22 23  1  0  0  0  0
 23 24  1  0  0  0  0
 21 25  2  0  0  0  0
 25 26  1  0  0  0  0
 26 27  1  0  0  0  0
 27 28  1  0  0  0  0
 25 29  1  0  0  0  0
 29 30  2  0  0  0  0
 30 31  1  0  0  0  0
 31 32  1  0  0  0  0
 32 33  1  0  0  0  0
 33 34  2  0  0  0  0
 34 35  1  0  0  0  0
 35 36  1  0  0  0  0
 36 37  2  0  0  0  0
 37 38  1  0  0  0  0
 38 39  1  0  0  0  0
 37 40  1  0  0  0  0
 40 41  2  0  0  0  0
 33 42  1  0  0  0  0
 42 43  1  0  0  0  0
 43 44  1  0  0  0  0
 44 45  2  0  0  0  0
 45 46  1  0  0  0  0
 46 47  1  0  0  0  0
 47 48  2  0  0  0  0
 48 49  1  0  0  0  0
 49 50  1  0  0  0  0
 48 51  1  0  0  0  0
 51 52  2  0  0  0  0
 44 53  1  0  0  0  0
 53 54  2  0  0  0  0
 54 55  1  0  0  0  0
 55 56  1  0  0  0  0
 56 57  1  0  0  0  0
 54 58  1  0  0  0  0
 58 59  1  0  0  0  0
 59 60  1  0  0  0  0
 60 61  1  0  0  0  0
 58 62  2  0  0  0  0
 62 63  1  0  0  0  0
 63 64  1  0  0  0  0
 64 65  1  0  0  0  0
 62 66  1  0  0  0  0
 66 67  2  0  0  0  0
 67 68  1  0  0  0  0
 68 69  2  0  0  0  0
 69 70  1  0  0  0  0
 70 71  1  0  0  0  0
 71 72  1  0  0  0  0
 69 73  1  0  0  0  0
 73 74  1  0  0  0  0
 74 75  1  0  0  0  0
 75 76  1  0  0  0  0
 73 77  2  0  0  0  0
 77 78  1  0  0  0  0
 78 79  1  0  0  0  0
 79 80  1  0  0  0  0
 77 81  1  0  0  0  0
 81 82  2  0  0  0  0
 15  1  1  0  0  0  0
 30 16  1  0  0  0  0
 35 31  2  0  0  0  0
 46 42  2  0  0  0  0
 67 53  1  0  0  0  0
 82 68  1  0  0  0  0
 41 34  1  0  0  0  0
 52 45  1  0  0  0  0
  1 83  1  0  0  0  0
  4 84  1  0  0  0  0
  4 85  1  0  0  0  0
  5 86  1  0  0  0  0
  5 87  1  0  0  0  0
  5 88  1  0  0  0  0
  8 89  1  0  0  0  0
  8 90  1  0  0  0  0
  9 91  1  0  0  0  0
  9 92  1  0  0  0  0
  9 93  1  0  0  0  0
 12 94  1  0  0  0  0
 12 95  1  0  0  0  0
 13 96  1  0  0  0  0
 13 97  1  0  0  0  0
 13 98  1  0  0  0  0
 14 99  1  0  0  0  0
 19100  1  0  0  0  0
 19101  1  0  0  0  0
 20102  1  0  0  0  0
 20103  1  0  0  0  0
 20104  1  0  0  0  0
 23105  1  0  0  0  0
 23106  1  0  0  0  0
 24107  1  0  0  0  0
 24108  1  0  0  0  0
 24109  1  0  0  0  0
 27110  1  0  0  0  0
 27111  1  0  0  0  0
 28112  1  0  0  0  0
 28113  1  0  0  0  0
 28114  1  0  0  0  0
 29115  1  0  0  0  0
 36116  1  0  0  0  0
 39117  1  0  0  0  0
 39118  1  0  0  0  0
 39119  1  0  0  0  0
 40120  1  0  0  0  0
 41121  1  0  0  0  0
 47122  1  0  0  0  0
 50123  1  0  0  0  0
 50124  1  0  0  0  0
 50125  1  0  0  0  0
 51126  1  0  0  0  0
 52127  1  0  0  0  0
 56128  1  0  0  0  0
 56129  1  0  0  0  0
 57130  1  0  0  0  0
 57131  1  0  0  0  0
 57132  1  0  0  0  0
 60133  1  0  0  0  0
 60134  1  0  0  0  0
 61135  1  0  0  0  0
 61136  1  0  0  0  0
 61137  1  0  0  0  0
 64138  1  0  0  0  0
 64139  1  0  0  0  0
 65140  1  0  0  0  0
 65141  1  0  0  0  0
 65142  1  0  0  0  0
 66143  1  0  0  0  0
 71144  1  0  0  0  0
 71145  1  0  0  0  0
 72146  1  0  0  0  0
 72147  1  0  0  0  0
 72148  1  0  0  0  0
 75149  1  0  0  0  0
 75150  1  0  0  0  0
 76151  1  0  0  0  0
 76152  1  0  0  0  0
 76153  1  0  0  0  0
 79154  1  0  0  0  0
 79155  1  0  0  0  0
 80156  1  0  0  0  0
 80157  1  0  0  0  0
 80158  1  0  0  0  0
 81159  1  0  0  0  0
 82160  1  0  0  0  0
M  END
