154

C          4.08660       -3.25980       13.12030
S          3.39440       -3.66610       11.61390
C          2.30870       -2.31180       11.65870
C          2.52350       -1.55300       12.80920
C          3.53980       -2.11350       13.65270
C          3.89590       -1.47760       14.86750
C          3.28660       -0.30120       15.20240
O          3.52800        0.42150       16.33020
C          4.47440       -0.06960       17.24620
C          2.32390        0.28680       14.33100
C          1.95060       -0.31130       13.17030
C          1.38620       -2.10070       10.59600
S          1.85700       -2.40590        8.95950
C          0.31800       -1.93190        8.32590
C         -0.54210       -1.53830        9.35950
C          0.05580       -1.66600       10.65420
C         -0.71480       -1.43010       11.80580
C         -2.01260       -0.99140       11.68690
O         -2.69130       -0.80050       12.85290
C         -4.02800       -0.36550       12.80290
C         -2.56150       -0.74920       10.40500
C         -1.85010       -1.02110        9.27210
C          0.08150       -1.98820        6.92780
C         -1.11270       -2.05650        6.26280
C         -0.98560       -2.04560        4.85680
C         -2.01690       -2.02740        3.89750
C         -3.41400       -1.99410        4.29390
S         -3.98040       -0.82760        5.45640
C         -5.61680       -1.38450        5.34670
C         -6.68480       -0.78670        6.19450
C         -6.44120       -1.08000        7.67580
C         -5.70240       -2.41220        4.45760
Cl        -7.16060       -3.23370        4.07320
C         -4.46020       -2.75800        3.85760
Cl        -4.31530       -4.07670        2.77250
C         -1.63240       -1.97520        2.56640
C         -0.27800       -1.96950        2.14900
C          0.75250       -2.02570        3.10830
C          2.15010       -2.05000        2.71150
S          2.81420       -0.86490        1.62250
C          4.39100       -1.57500        1.67920
C          5.53930       -0.97900        0.94180
C          6.27870        0.04130        1.81090
C          4.39030       -2.65790        2.50590
C          3.12420       -2.93270        3.08940
Cl         2.85630       -4.29800        4.08940
Cl         5.77400       -3.62560        2.80960
C          0.36990       -2.04010        4.44230
S          1.43990       -1.97960        5.81230
C         -0.16050       -1.88990        0.74710
C         -1.35890       -1.80220        0.08390
S         -2.70720       -1.84120        1.20570
C         -1.51900       -1.65700       -1.31310
S         -0.10260       -1.33200       -2.26190
C         -0.98780       -1.23090       -3.75450
C         -2.35330       -1.47730       -3.51300
C         -2.65090       -1.71490       -2.13510
C         -3.96810       -1.99780       -1.72870
C         -4.97020       -2.04820       -2.66440
O         -6.27190       -2.31450       -2.39550
C         -6.64150       -2.56550       -1.05940
C         -4.67240       -1.83040       -4.03400
C         -3.40500       -1.55670       -4.44940
C         -0.33640       -0.86700       -4.95200
S         -1.23630       -0.21520       -6.28880
C          0.18150        0.11170       -7.22250
C          1.32890       -0.32050       -6.54680
C          1.04130       -0.86030       -5.25520
C          2.09220       -1.34360       -4.45430
C          3.38600       -1.27760       -4.90920
O          4.47580       -1.68760       -4.21090
C          4.28960       -2.19010       -2.90900
C          3.66180       -0.77470       -6.20560
C          2.66280       -0.32170       -7.01040
C          0.05020        0.76320       -8.47610
C          0.98220        1.47900       -9.17570
C          0.50130        1.99940      -10.40000
C          1.19970        2.77820      -11.33930
C          2.60480        3.09370      -11.14910
S          3.76560        1.83570      -10.83490
C          5.08210        2.95790      -10.74790
C          6.46200        2.49210      -10.43900
C          6.54250        1.89380       -9.03380
C          4.63100        4.22670      -10.95180
Cl         5.63520        5.61840      -10.93280
C          3.23010        4.30830      -11.18450
Cl         2.42140        5.80410      -11.39100
C          0.49400        3.19480      -12.46250
C         -0.87180        2.88740      -12.66990
C         -1.57850        2.14270      -11.71110
C         -2.99860        1.87090      -11.85820
S         -3.63750        0.26020      -11.73030
C         -5.26250        0.80230      -11.97460
C         -6.40530       -0.15040      -11.92360
C         -6.78570       -0.46300      -10.47440
C         -5.29270        2.15560      -12.13290
C         -4.01060        2.76490      -12.07290
Cl        -3.78900        4.46390      -12.17740
Cl        -6.72910        3.05980      -12.38540
C         -0.86420        1.69140      -10.61060
S         -1.50380        0.74160       -9.30070
C         -1.33200        3.36490      -13.93120
C         -0.37170        4.00170      -14.63170
S          1.15130        4.06950      -13.81600
H          4.85860       -3.87700       13.53400
H          4.65090       -1.93890       15.48340
H          4.50150        0.65220       18.06090
H          4.18170       -1.04910       17.63830
H          5.46890       -0.14330       16.79380
H          1.90800        1.23520       14.63140
H          1.23720        0.15930       12.51270
H         -0.30470       -1.60120       12.78710
H         -4.66290       -1.06920       12.25450
H         -4.11370        0.62990       12.35460
H         -4.35800       -0.31890       13.83950
H         -3.55880       -0.34900       10.31260
H         -2.28450       -0.81500        8.30760
H         -2.05500       -2.16310        6.76320
H         -7.64510       -1.20180        5.88500
H         -6.70920        0.29490        6.04160
H         -7.23070       -0.64020        8.27930
H         -6.42480       -2.15300        7.85110
H         -5.48640       -0.66260        7.98790
H          5.17510       -0.49020        0.03690
H          6.22590       -1.77910        0.65770
H          7.11530        0.46350        1.26080
H          5.60790        0.84660        2.10020
H          6.65740       -0.43590        2.71080
H          0.77880       -1.89670        0.22480
H         -4.16350       -2.18580       -0.68780
H         -6.12780       -3.44540       -0.66020
H         -7.71390       -2.75130       -1.07960
H         -6.43290       -1.70430       -0.41710
H         -5.48650       -1.90080       -4.73740
H         -3.20720       -1.42040       -5.49960
H          1.86910       -1.78130       -3.49840
H          3.69450       -3.10860       -2.91460
H          3.80740       -1.45210       -2.25970
H          5.28690       -2.41010       -2.53200
H          4.68830       -0.78430       -6.53560
H          2.88270        0.00750       -8.01220
H          1.96690        1.68370       -8.80340
H          6.76330        1.73660      -11.16880
H          7.14000        3.34270      -10.52270
H          7.55820        1.57050       -8.82260
H          5.87830        1.03650       -8.95160
H          6.25040        2.63180       -8.29060
H         -6.13050       -1.07540      -12.43360
H         -7.25690        0.29550      -12.44030
H         -7.07870        0.44720       -9.95730
H         -5.94060       -0.90320       -9.95050
H         -7.61730       -1.16190      -10.44870
H         -2.33270        3.21540      -14.29210
H         -0.45240        4.45170      -15.60190
