
  xtb     03022221463D
 energy: -166.587220836873 gnorm: 0.000741052523 xtb: 6.4.1 (unknown)
 74 80  0     0  0            999 V2000
    2.5886   -1.3270   -0.6990 C   0  0  0  0  0  0  0  0  0  0  0  0
    3.6538   -1.1045    0.6122 S   0  0  0  0  0  0  0  0  0  0  0  0
    2.8590    0.3647    1.0470 C   0  0  0  0  0  0  0  0  0  0  0  0
    3.3258    1.1020    2.2127 C   0  0  0  0  0  0  0  0  0  0  0  0
    4.2860    0.7910    2.8759 O   0  0  0  0  0  0  0  0  0  0  0  0
    2.5736    2.1771    2.4829 O   0  0  0  0  0  0  0  0  0  0  0  0
    1.8189    0.6632    0.2019 C   0  0  0  0  0  0  0  0  0  0  0  0
    1.6733   -0.3101   -0.8026 C   0  0  0  0  0  0  0  0  0  0  0  0
    0.7606   -0.3322   -1.8279 O   0  0  0  0  0  0  0  0  0  0  0  0
    0.0074    0.7509   -2.1190 C   0  0  0  0  0  0  0  0  0  0  0  0
    0.2192    1.5110   -3.6593 S   0  0  0  0  0  0  0  0  0  0  0  0
   -1.1046    2.5657   -3.3396 C   0  0  0  0  0  0  0  0  0  0  0  0
   -1.5210    3.5167   -4.3708 C   0  0  0  0  0  0  0  0  0  0  0  0
   -0.8970    3.7607   -5.3691 O   0  0  0  0  0  0  0  0  0  0  0  0
   -2.6892    4.1040   -4.0710 O   0  0  0  0  0  0  0  0  0  0  0  0
   -1.6522    2.3663   -2.1013 C   0  0  0  0  0  0  0  0  0  0  0  0
   -1.0209    1.3229   -1.3966 C   0  0  0  0  0  0  0  0  0  0  0  0
   -1.2798    0.8762   -0.1287 O   0  0  0  0  0  0  0  0  0  0  0  0
   -2.4832    1.0018    0.4579 C   0  0  0  0  0  0  0  0  0  0  0  0
   -3.9659    1.3996   -0.3342 S   0  0  0  0  0  0  0  0  0  0  0  0
   -4.8303    1.2511    1.1604 C   0  0  0  0  0  0  0  0  0  0  0  0
   -6.2602    1.5220    1.1592 C   0  0  0  0  0  0  0  0  0  0  0  0
   -6.8914    1.8585    0.1879 O   0  0  0  0  0  0  0  0  0  0  0  0
   -6.8153    1.3620    2.3714 O   0  0  0  0  0  0  0  0  0  0  0  0
   -4.0151    0.8878    2.1978 C   0  0  0  0  0  0  0  0  0  0  0  0
   -2.6754    0.7330    1.8041 C   0  0  0  0  0  0  0  0  0  0  0  0
   -1.6857    0.4065    2.6932 O   0  0  0  0  0  0  0  0  0  0  0  0
   -0.8306   -0.5830    2.3689 C   0  0  0  0  0  0  0  0  0  0  0  0
   -1.1411   -1.7307    1.1305 S   0  0  0  0  0  0  0  0  0  0  0  0
    0.3350   -2.5963    1.4613 C   0  0  0  0  0  0  0  0  0  0  0  0
    1.0162   -2.0070    2.5333 C   0  0  0  0  0  0  0  0  0  0  0  0
    0.3564   -0.8440    3.0433 C   0  0  0  0  0  0  0  0  0  0  0  0
    0.9253   -0.0885    4.0840 C   0  0  0  0  0  0  0  0  0  0  0  0
    2.1317   -0.4741    4.6186 C   0  0  0  0  0  0  0  0  0  0  0  0
    2.6439    0.3235    5.5921 O   0  0  0  0  0  0  0  0  0  0  0  0
    3.9535    0.0733    6.0565 C   0  0  0  0  0  0  0  0  0  0  0  0
    2.7690   -1.6471    4.1421 C   0  0  0  0  0  0  0  0  0  0  0  0
    2.2315   -2.3930    3.1325 C   0  0  0  0  0  0  0  0  0  0  0  0
    0.6697   -3.6865    0.6279 C   0  0  0  0  0  0  0  0  0  0  0  0
    2.0878   -4.6670    0.7917 S   0  0  0  0  0  0  0  0  0  0  0  0
    1.6482   -5.6270   -0.5885 C   0  0  0  0  0  0  0  0  0  0  0  0
    2.4792   -6.7260   -1.0325 C   0  0  0  0  0  0  0  0  0  0  0  0
    2.2423   -7.4347   -1.9820 O   0  0  0  0  0  0  0  0  0  0  0  0
    3.5736   -6.8870   -0.2623 O   0  0  0  0  0  0  0  0  0  0  0  0
    0.4590   -5.2129   -1.1395 C   0  0  0  0  0  0  0  0  0  0  0  0
   -0.0869   -4.1247   -0.4617 C   0  0  0  0  0  0  0  0  0  0  0  0
   -1.3069   -3.5366   -0.7276 O   0  0  0  0  0  0  0  0  0  0  0  0
   -1.4626   -2.7708   -1.8305 C   0  0  0  0  0  0  0  0  0  0  0  0
   -2.9003   -1.8156   -1.8763 S   0  0  0  0  0  0  0  0  0  0  0  0
   -2.4094   -1.1052   -3.3805 C   0  0  0  0  0  0  0  0  0  0  0  0
   -3.1829   -0.0394   -3.9879 C   0  0  0  0  0  0  0  0  0  0  0  0
   -2.8625    0.5645   -4.9850 O   0  0  0  0  0  0  0  0  0  0  0  0
   -4.2935    0.2430   -3.2878 O   0  0  0  0  0  0  0  0  0  0  0  0
   -1.2063   -1.6109   -3.8066 C   0  0  0  0  0  0  0  0  0  0  0  0
   -0.6518   -2.5544   -2.9247 C   0  0  0  0  0  0  0  0  0  0  0  0
    0.5540   -3.1667   -3.0929 O   0  0  0  0  0  0  0  0  0  0  0  0
    2.6651   -2.1817   -1.3404 H   0  0  0  0  0  0  0  0  0  0  0  0
    2.8955    2.6050    3.2924 H   0  0  0  0  0  0  0  0  0  0  0  0
    1.2086    1.5396    0.3106 H   0  0  0  0  0  0  0  0  0  0  0  0
   -2.9413    4.7068   -4.7883 H   0  0  0  0  0  0  0  0  0  0  0  0
   -2.4664    2.9599   -1.7310 H   0  0  0  0  0  0  0  0  0  0  0  0
   -7.7653    1.5510    2.3204 H   0  0  0  0  0  0  0  0  0  0  0  0
   -4.3587    0.7388    3.2040 H   0  0  0  0  0  0  0  0  0  0  0  0
    0.4229    0.7925    4.4471 H   0  0  0  0  0  0  0  0  0  0  0  0
    4.0189   -0.8839    6.5826 H   0  0  0  0  0  0  0  0  0  0  0  0
    4.1710    0.8791    6.7560 H   0  0  0  0  0  0  0  0  0  0  0  0
    4.6714    0.0985    5.2321 H   0  0  0  0  0  0  0  0  0  0  0  0
    3.7057   -1.9576    4.5739 H   0  0  0  0  0  0  0  0  0  0  0  0
    2.7403   -3.2794    2.7903 H   0  0  0  0  0  0  0  0  0  0  0  0
    4.0970   -7.6334   -0.5909 H   0  0  0  0  0  0  0  0  0  0  0  0
    0.0169   -5.6837   -1.9975 H   0  0  0  0  0  0  0  0  0  0  0  0
   -4.7808    0.9714   -3.7015 H   0  0  0  0  0  0  0  0  0  0  0  0
   -0.7369   -1.2903   -4.7202 H   0  0  0  0  0  0  0  0  0  0  0  0
    0.9518   -2.8442   -3.9099 H   0  0  0  0  0  0  0  0  0  0  0  0
  1  2  1  0  0  0  0
  2  3  1  0  0  0  0
  3  4  1  0  0  0  0
  4  5  2  0  0  0  0
  4  6  1  0  0  0  0
  3  7  2  0  0  0  0
  7  8  1  0  0  0  0
  8  9  1  0  0  0  0
  9 10  1  0  0  0  0
 10 11  1  0  0  0  0
 11 12  1  0  0  0  0
 12 13  1  0  0  0  0
 13 14  2  0  0  0  0
 13 15  1  0  0  0  0
 12 16  2  0  0  0  0
 16 17  1  0  0  0  0
 17 18  1  0  0  0  0
 18 19  1  0  0  0  0
 19 20  1  0  0  0  0
 20 21  1  0  0  0  0
 21 22  1  0  0  0  0
 22 23  2  0  0  0  0
 22 24  1  0  0  0  0
 21 25  2  0  0  0  0
 25 26  1  0  0  0  0
 26 27  1  0  0  0  0
 27 28  1  0  0  0  0
 28 29  1  0  0  0  0
 29 30  1  0  0  0  0
 30 31  2  0  0  0  0
 31 32  1  0  0  0  0
 32 33  1  0  0  0  0
 33 34  2  0  0  0  0
 34 35  1  0  0  0  0
 35 36  1  0  0  0  0
 34 37  1  0  0  0  0
 37 38  2  0  0  0  0
 30 39  1  0  0  0  0
 39 40  1  0  0  0  0
 40 41  1  0  0  0  0
 41 42  1  0  0  0  0
 42 43  2  0  0  0  0
 42 44  1  0  0  0  0
 41 45  2  0  0  0  0
 45 46  1  0  0  0  0
 46 47  1  0  0  0  0
 47 48  1  0  0  0  0
 48 49  1  0  0  0  0
 49 50  1  0  0  0  0
 50 51  1  0  0  0  0
 51 52  2  0  0  0  0
 51 53  1  0  0  0  0
 50 54  2  0  0  0  0
 54 55  1  0  0  0  0
 55 56  1  0  0  0  0
  8  1  2  0  0  0  0
 17 10  2  0  0  0  0
 26 19  2  0  0  0  0
 32 28  2  0  0  0  0
 46 39  2  0  0  0  0
 55 48  2  0  0  0  0
 38 31  1  0  0  0  0
  1 57  1  0  0  0  0
  6 58  1  0  0  0  0
  7 59  1  0  0  0  0
 15 60  1  0  0  0  0
 16 61  1  0  0  0  0
 24 62  1  0  0  0  0
 25 63  1  0  0  0  0
 33 64  1  0  0  0  0
 36 65  1  0  0  0  0
 36 66  1  0  0  0  0
 36 67  1  0  0  0  0
 37 68  1  0  0  0  0
 38 69  1  0  0  0  0
 44 70  1  0  0  0  0
 45 71  1  0  0  0  0
 53 72  1  0  0  0  0
 54 73  1  0  0  0  0
 56 74  1  0  0  0  0
M  END
