164

C          1.98540        5.80310        4.42260
S          1.54250        4.28370        5.06570
C          2.81090        4.30690        6.25330
C          3.54840        5.49970        6.12340
C          3.07380        6.34490        5.07180
C          3.70850        7.57920        4.79900
C          4.78530        7.98240        5.53700
C          5.50740        9.29890        5.30120
C          6.97660        9.01370        4.95920
C          5.42350       10.15090        6.57560
C          4.89890       10.10370        4.14950
C          5.24960        7.13070        6.57440
C          4.66370        5.93270        6.86310
C          2.98840        3.36630        7.29050
C          2.47280        2.12140        7.53290
C          1.75560        1.21620        6.73190
S          1.64700        1.32010        5.00740
C          0.75250       -0.16910        4.84000
C          0.55520       -0.74130        6.12160
C          1.12460        0.03100        7.17390
C          1.00110       -0.38920        8.50970
C          0.32440       -1.55000        8.79770
O          0.14190       -2.06430       10.04510
C          0.69310       -1.37800       11.14080
C         -0.26130       -2.30220        7.75490
C         -0.15260       -1.90970        6.45230
C          0.38390       -0.63070        3.57490
S         -0.13920       -2.28170        3.32680
C         -0.29710       -2.09220        1.60430
C          0.05080       -0.77280        1.23020
C          0.41250        0.05290        2.32730
C          0.70190        1.40190        2.08670
C          0.70470        1.92380        0.81080
C          1.01890        3.40080        0.62680
C         -0.03240        4.22770        1.38100
C          2.41410        3.69470        1.19640
C          1.00180        3.83090       -0.84270
C          0.40590        1.07050       -0.26590
C          0.07140       -0.24390       -0.06610
C         -0.71910       -3.10880        0.76020
C         -0.98420       -4.41590        1.10690
C         -1.35040       -5.37180        0.16380
S         -1.63710       -4.90000       -1.48860
C         -1.77270       -6.53670       -2.05000
C         -1.66560       -7.42970       -0.95280
C         -1.43580       -6.77940        0.28830
C         -1.28110       -7.52780        1.46300
C         -1.35470       -8.90120        1.43530
C         -1.19900       -9.76100        2.67890
C         -2.48410      -10.57430        2.88920
C         -0.94830       -8.93120        3.94100
C         -0.00700      -10.70960        2.48720
C         -1.58420       -9.53330        0.19510
C         -1.73220       -8.82970       -0.97010
C         -2.05070       -6.87110       -3.37980
C         -2.13640       -6.05650       -4.48610
C         -1.70400       -4.72990       -4.65720
S         -2.60180       -3.70090       -5.74600
C         -1.67140       -2.28640       -5.36090
C         -0.63030       -2.63700       -4.46300
C         -0.61750       -4.01430       -4.11630
C          0.44630       -4.53670       -3.36350
C          1.42680       -3.71440       -2.85180
C          2.57690       -4.31770       -2.06050
C          3.50290       -3.25600       -1.46030
C          3.39890       -5.20260       -3.00910
C          2.03160       -5.16780       -0.90540
C          1.34020       -2.33440       -3.11670
C          0.36140       -1.80840       -3.92020
C         -1.94180       -0.97230       -5.76400
C         -2.81080       -0.39510       -6.65650
C         -3.65790       -0.89130       -7.65930
S         -3.70730       -2.52570       -8.22890
C         -4.88280       -2.18740       -9.45670
C         -5.21220       -0.82680       -9.45590
C         -4.53220       -0.09390       -8.43830
C         -4.76980        1.28360       -8.29060
C         -5.62230        1.95190       -9.13240
C         -5.90870        3.43940       -9.00960
C         -5.46880        4.14310      -10.30150
C         -7.41490        3.64200       -8.79160
C         -5.16760        4.08980       -7.83800
C         -6.24770        1.22110      -10.16990
C         -6.05700       -0.11900      -10.33520
C         -5.33200       -3.29640      -10.24150
C         -6.44470       -3.38480      -10.97390
H          1.42680        6.21480        3.60640
H          3.30670        8.17430        3.99560
H          7.50210        9.94580        4.76170
H          7.04050        8.38630        4.07240
H          7.48450        8.50450        5.77350
H          5.89900        9.65600        7.41790
H          5.91860       11.10720        6.41960
H          4.38320       10.33870        6.83380
H          3.86180       10.35820        4.35530
H          5.45360       11.03120        4.02200
H          4.95160        9.54960        3.21520
H          6.10230        7.43810        7.16050
H          5.05980        5.31700        7.65700
H          3.63510        3.74240        8.07510
H          2.68690        1.73430        8.52250
H          1.43350        0.21470        9.29030
H          1.78310       -1.30660       11.06270
H          0.26970       -0.37300       11.24020
H          0.43320       -1.96590       12.01960
H         -0.80210       -3.19480        8.02510
H         -0.62440       -2.49660        5.68250
H          0.90580        2.05160        2.91890
H          0.14580        5.28970        1.22440
H         -1.03040        3.98970        1.01820
H          0.00010        4.02810        2.44860
H          3.16540        3.10550        0.67470
H          2.65530        4.74840        1.07220
H          2.46940        3.45660        2.25460
H          1.24190        4.89010       -0.91230
H          0.01910        3.68080       -1.28410
H          1.74200        3.28220       -1.42060
H          0.41800        1.44620       -1.27550
H         -0.17690       -0.87250       -0.90840
H         -0.81890       -2.84360       -0.28500
H         -0.85330       -4.72640        2.13440
H         -1.10760       -6.99450        2.38210
H         -3.33580       -9.90710        3.00500
H         -2.68020      -11.23400        2.04850
H         -2.39830      -11.18360        3.78660
H         -0.03310       -8.35020        3.85240
H         -1.78010       -8.25940        4.13990
H         -0.84240       -9.59580        4.79610
H          0.13180      -11.31970        3.37730
H          0.90300      -10.13860        2.31460
H         -0.15790      -11.37400        1.64100
H         -1.64510      -10.61020        0.15400
H         -1.90170       -9.35250       -1.89960
H         -2.32760       -7.90700       -3.53420
H         -2.66800       -6.47020       -5.33580
H          0.48930       -5.60520       -3.22230
H          4.28100       -3.74440       -0.87720
H          3.98850       -2.66930       -2.23670
H          2.95420       -2.59050       -0.79680
H          2.79190       -6.00600       -3.41820
H          4.23900       -5.64400       -2.47710
H          3.78590       -4.61180       -3.83700
H          1.44360       -4.55110       -0.22940
H          2.85520       -5.60320       -0.34350
H          1.40430       -5.98010       -1.26190
H          2.07470       -1.66150       -2.70600
H          0.36790       -0.75100       -4.13950
H         -1.34480       -0.25130       -5.21720
H         -2.82380        0.68720       -6.60670
H         -4.26300        1.80730       -7.49810
H         -6.01480        3.77110      -11.16390
H         -4.40680        3.98090      -10.47470
H         -5.64640        5.21360      -10.22290
H         -7.99380        3.25600       -9.62600
H         -7.63810        4.70150       -8.68450
H         -7.73580        3.12830       -7.88760
H         -4.09000        4.00670       -7.96080
H         -5.45620        3.63720       -6.89200
H         -5.41840        5.14770       -7.79400
H         -6.89580        1.73730      -10.86170
H         -6.53140       -0.63310      -11.15460
H         -4.68800       -4.16610      -10.17460
H         -6.67460       -4.28620      -11.51480
H         -7.16770       -2.59270      -11.03910
