104

C          8.11010        2.66400       -0.11440
S          6.55980        2.10040       -0.55940
C          5.76240        3.17280        0.55250
C          6.70190        3.91390        1.26910
C          8.04950        3.62780        0.86610
C          9.13900        4.29330        1.48040
C          8.89000        5.17770        2.49120
O          9.83390        5.88910        3.16960
C         11.18020        5.72460        2.80210
C          7.55640        5.40570        2.93910
C          6.49270        4.79620        2.35420
C          4.34190        3.18760        0.61340
S          3.45900        1.70410        0.42610
C          1.91670        2.49160        0.54340
C          2.08880        3.86350        0.76410
C          3.46280        4.26600        0.76460
C          3.77920        5.63360        0.85210
C          2.78280        6.55980        1.05130
O          3.18220        7.86350        1.11700
C          2.21920        8.86280        1.34000
C          1.43800        6.13960        1.19300
C          1.09860        4.82560        1.04420
C          0.72630        1.74260        0.37550
S          0.62280        0.12230        0.99640
C         -0.98100       -0.12480        0.36740
C         -1.41520        1.03090       -0.30730
C         -0.44460        2.07760       -0.31580
C         -0.68110        3.25880       -1.04890
C         -1.88990        3.43390       -1.67070
O         -2.24440        4.53060       -2.39630
C         -1.31020        5.57310       -2.52550
C         -2.89310        2.43610       -1.57490
C         -2.66100        1.26180       -0.92590
C         -1.61560       -1.37720        0.47720
S         -2.78660       -1.88830       -0.70620
C         -2.96780       -3.46800       -0.00590
C         -2.12710       -3.60340        1.10930
C         -1.37740       -2.41990        1.39450
C         -0.53210       -2.39610        2.51230
C         -0.36970       -3.52580        3.28450
O          0.45430       -3.39690        4.36160
C          0.66940       -4.50970        5.19380
C         -1.02440       -4.72590        2.92930
C         -1.88500       -4.76250        1.86850
C         -3.83340       -4.39620       -0.62360
S         -3.98900       -4.36950       -2.35500
C         -5.06970       -5.73010       -2.39600
C         -5.32720       -6.16810       -1.08350
C         -4.64940       -5.40080       -0.08310
C         -4.91230       -5.63650        1.27530
C         -5.74720       -6.66470        1.64930
O         -5.94990       -6.81510        2.98960
C         -6.81760       -7.82700        3.43770
C         -6.32750       -7.49360        0.66350
C         -6.13200       -7.24370       -0.66570
C         -5.60160       -6.18880       -3.62340
S         -7.08710       -7.10380       -3.67400
C         -7.09080       -7.17700       -5.37710
C         -6.00220       -6.53740       -5.92410
C         -5.13860       -5.96750       -4.93100
C         -3.95700       -5.31750       -5.33970
C         -3.66960       -5.20810       -6.67640
O         -2.56420       -4.60460       -7.18840
C         -1.63560       -4.03570       -6.29710
C         -4.54770       -5.74830       -7.65720
C         -5.67930       -6.40350       -7.29720
H          8.97990        2.25690       -0.58950
H         10.13500        4.06780        1.13480
H         11.34820        6.00840        1.75790
H         11.74930        6.38720        3.45230
H         11.51420        4.69280        2.95420
H          7.42820        6.08050        3.77030
H          5.49260        4.96130        2.72220
H          4.79800        5.97060        0.75850
H          1.72090        8.73780        2.30720
H          1.46810        8.88820        0.54330
H          2.76930        9.80270        1.34190
H          0.66670        6.85940        1.41750
H          0.07240        4.51160        1.15830
H          0.10530        3.99140       -1.11360
H         -0.40510        5.24020       -3.04370
H         -1.80390        6.34120       -3.11870
H         -1.03330        5.98750       -1.55020
H         -3.84020        2.63520       -2.04990
H         -3.43510        0.51340       -0.87600
H         -0.00150       -1.50250        2.79390
H          1.15510       -5.33030        4.65540
H          1.33240       -4.15970        5.98360
H         -0.26410       -4.86810        5.64010
H         -0.85260       -5.62740        3.49530
H         -2.37000       -5.68670        1.59820
H         -4.48440       -5.00450        2.03560
H         -6.44650       -8.82390        3.17700
H         -7.82920       -7.69870        3.03910
H         -6.84520       -7.72910        4.52200
H         -6.94660       -8.32800        0.95150
H         -6.59770       -7.88490       -1.39600
H         -7.88370       -7.68720       -5.88600
H         -3.28480       -4.92650       -4.59670
H         -2.09290       -3.24960       -5.68800
H         -0.85520       -3.60280       -6.92080
H         -1.19590       -4.79240       -5.63940
H         -4.26790       -5.62560       -8.69150
H         -6.34080       -6.82920       -8.03610
