154

C         -3.51390       -2.03940      -13.88830
S         -3.15460       -0.63110      -12.99460
C         -3.36110       -1.43910      -11.46530
C         -3.69950       -2.78540      -11.68180
C         -3.78230       -3.11740      -13.07440
C         -4.10080       -4.43220      -13.49060
C         -4.31500       -5.39480      -12.54360
O         -4.62500       -6.69630      -12.79300
C         -4.72740       -7.11130      -14.13240
C         -4.20340       -5.07450      -11.16250
C         -3.90520       -3.81570      -10.74030
C         -3.23970       -0.73400      -10.24730
S         -4.01440       -1.32530       -8.80910
C         -3.48190        0.00310       -7.82130
C         -2.73660        0.90230       -8.60920
C         -2.59530        0.48790       -9.97060
C         -1.82960        1.26650      -10.84990
C         -1.25810        2.44520      -10.42250
O         -0.52350        3.12030      -11.34780
C          0.10230        4.32450      -10.97580
C         -1.46210        2.88710       -9.09820
C         -2.17800        2.12950       -8.21400
C         -3.70800        0.00570       -6.43150
S         -2.68610        0.92800       -5.36870
C         -3.39870        0.26590       -3.93480
C         -4.45140       -0.59700       -4.26290
C         -4.62610       -0.75050       -5.67230
C         -5.66300       -1.56360       -6.16410
C         -6.49020       -2.21900       -5.28500
O         -7.51680       -3.03380       -5.64120
C         -7.75360       -3.25630       -7.01060
C         -6.32280       -2.05170       -3.88760
C         -5.33980       -1.25530       -3.38650
C         -2.81410        0.58340       -2.68430
C         -2.83620       -0.11700       -1.50680
C         -2.00310        0.42570       -0.50430
C         -1.80410       -0.05030        0.80560
C         -2.51550       -1.20660        1.32450
S         -2.49350       -2.74710        0.51620
C         -3.46490       -3.49350        1.73790
C         -3.81430       -4.94000        1.68170
C         -2.85260       -5.76660        2.53860
C         -3.77400       -2.59190        2.71180
Cl        -4.72820       -2.96600        4.08780
C         -3.24100       -1.29610        2.48070
Cl        -3.56360        0.02750        3.52030
C         -0.88140        0.62810        1.58940
C         -0.18930        1.77920        1.14340
C         -0.43760        2.29810       -0.14250
C          0.20120        3.52870       -0.57560
S          0.10810        4.95530        0.42260
C          0.99750        5.91110       -0.71380
C          1.24410        7.36090       -0.48030
C          0.07670        8.20300       -1.00110
C          1.33510        5.15740       -1.79690
C          0.89410        3.80750       -1.72050
Cl         1.29510        2.65140       -2.92000
Cl         2.22480        5.75800       -3.13520
C         -1.32480        1.59320       -0.94280
S         -1.77430        1.99660       -2.57220
C          0.77380        2.21890        2.07810
C          0.83280        1.45480        3.21200
S         -0.33860        0.14550        3.16940
C          1.73220        1.54240        4.30690
S          2.02980        0.12710        5.25610
C          3.26260        0.90150        6.19600
C          3.41060        2.23690        5.80720
C          2.52840        2.60830        4.74260
C          2.50420        3.93810        4.27510
C          3.36870        4.85640        4.81290
O          3.44940        6.16110        4.44360
C          2.61350        6.61850        3.40840
C          4.26860        4.47670        5.84440
C          4.28470        3.21040        6.33900
C          3.95090        0.11260        7.15490
C          3.61460       -1.16860        7.50270
C          4.49980       -1.76990        8.42320
C          4.41620       -3.05230        8.99300
C          3.34820       -3.96470        8.62060
S          3.03810       -4.34470        6.95080
C          1.72410       -5.39820        7.34980
C          0.92400       -6.06080        6.28350
C         -0.03080       -5.06890        5.61460
C          1.54770       -5.44050        8.70000
Cl         0.33450       -6.37050        9.48000
C          2.46890       -4.63530        9.42400
Cl         2.39830       -4.46910       11.12790
C          5.40540       -3.40050        9.90510
C          6.46070       -2.52880       10.26610
C          6.54390       -1.24820        9.69460
C          7.62710       -0.33500       10.02580
S          7.95560        0.12780       11.66940
C          9.26880        1.15370       11.20240
C         10.02340        1.95400       12.20590
C          9.36460        3.31790       12.42570
C          9.42450        1.13440        9.84890
C          8.49880        0.29010        9.17860
Cl         8.54870        0.03450        7.48430
Cl        10.62940        2.02590        9.01360
C          5.55390       -0.89710        8.78790
S          5.39930        0.64290        7.98980
C          7.36870       -3.15120       11.17090
C          7.02130       -4.41940       11.47160
S          5.57410       -4.94620       10.68700
H         -3.50250       -2.00460      -14.95900
H         -4.15570       -4.63260      -14.54840
H         -4.97180       -8.17170      -14.09680
H         -3.78170       -6.97470      -14.66710
H         -5.52210       -6.57310      -14.65930
H         -4.35710       -5.87690      -10.45870
H         -3.80900       -3.61550       -9.68570
H         -1.66110        0.96130      -11.86800
H          0.81320        4.17440      -10.15700
H         -0.62800        5.08870      -10.69030
H          0.64110        4.65880      -11.86110
H         -1.04980        3.82640       -8.76670
H         -2.32310        2.49010       -7.20890
H         -5.81240       -1.64110       -7.22660
H         -8.59200       -3.94930       -7.05580
H         -8.02170       -2.32930       -7.52730
H         -6.88350       -3.70430       -7.50090
H         -7.01660       -2.56220       -3.23900
H         -5.25570       -1.10160       -2.32360
H         -3.37660       -1.03500       -1.37960
H         -4.83280       -5.07160        2.05360
H         -3.77190       -5.28190        0.64660
H         -3.11870       -6.81900        2.48940
H         -2.90310       -5.44110        3.57450
H         -1.83190       -5.64600        2.18300
H          1.37260        7.54020        0.58880
H          2.16090        7.64870       -0.99840
H         -0.84440        7.92420       -0.49490
H          0.26830        9.25760       -0.82300
H         -0.05260        8.04690       -2.06890
H          1.45730        3.01950        1.87140
H          1.78270        4.21540        3.52700
H          1.55530        6.52860        3.67440
H          2.79840        6.07510        2.47560
H          2.86420        7.66930        3.27150
H          4.92580        5.23810        6.23270
H          4.95700        2.94730        7.13920
H          2.74520       -1.65930        7.10480
H          1.59630       -6.47680        5.53030
H          0.35430       -6.87640        6.73180
H         -0.60230       -5.56990        4.83800
H         -0.72180       -4.65730        6.34600
H          0.52670       -4.25040        5.16500
H         11.04360        2.09670       11.84420
H         10.05870        1.40980       13.15100
H          9.92900        3.89150       13.15590
H          8.34780        3.19180       12.78990
H          9.33330        3.87500       11.49280
H          8.24130       -2.66340       11.56450
H          7.52950       -5.10480       12.12130
