
  xtb     03012223293D
 energy: -233.747283168615 gnorm: 0.000549542086 xtb: 6.4.1 (unknown)
129143  0     0  0            999 V2000
    6.5993   -2.4394    9.8113 C   0  0  0  0  0  0  0  0  0  0  0  0
    4.9818   -1.9104    9.8886 S   0  0  0  0  0  0  0  0  0  0  0  0
    4.8807   -1.6554    8.1702 C   0  0  0  0  0  0  0  0  0  0  0  0
    6.1108   -1.9799    7.5709 C   0  0  0  0  0  0  0  0  0  0  0  0
    7.0882   -2.4284    8.5215 C   0  0  0  0  0  0  0  0  0  0  0  0
    8.3803   -2.7958    8.0971 C   0  0  0  0  0  0  0  0  0  0  0  0
    8.7115   -2.7113    6.7679 C   0  0  0  0  0  0  0  0  0  0  0  0
    9.9786   -3.0894    6.4346 O   0  0  0  0  0  0  0  0  0  0  0  0
   10.3776   -3.0339    5.0871 C   0  0  0  0  0  0  0  0  0  0  0  0
    7.7585   -2.2362    5.8335 C   0  0  0  0  0  0  0  0  0  0  0  0
    6.4979   -1.8806    6.2219 C   0  0  0  0  0  0  0  0  0  0  0  0
    3.6674   -1.2557    7.5644 C   0  0  0  0  0  0  0  0  0  0  0  0
    3.3805   -1.5654    5.8802 S   0  0  0  0  0  0  0  0  0  0  0  0
    1.7638   -0.9366    5.9199 C   0  0  0  0  0  0  0  0  0  0  0  0
    1.4548   -0.4835    7.2088 C   0  0  0  0  0  0  0  0  0  0  0  0
    2.5290   -0.6574    8.1398 C   0  0  0  0  0  0  0  0  0  0  0  0
    2.3745   -0.2005    9.4568 C   0  0  0  0  0  0  0  0  0  0  0  0
    1.1927    0.3805    9.8601 C   0  0  0  0  0  0  0  0  0  0  0  0
    1.1462    0.7964   11.1561 O   0  0  0  0  0  0  0  0  0  0  0  0
   -0.0290    1.4009   11.6378 C   0  0  0  0  0  0  0  0  0  0  0  0
    0.1253    0.5220    8.9460 C   0  0  0  0  0  0  0  0  0  0  0  0
    0.2571    0.1073    7.6518 C   0  0  0  0  0  0  0  0  0  0  0  0
    1.0198   -0.9392    4.7162 C   0  0  0  0  0  0  0  0  0  0  0  0
    1.4839   -1.3502    3.4913 C   0  0  0  0  0  0  0  0  0  0  0  0
    0.5483   -1.2258    2.4445 C   0  0  0  0  0  0  0  0  0  0  0  0
    0.7073   -1.5638    1.0856 C   0  0  0  0  0  0  0  0  0  0  0  0
    1.9549   -2.1116    0.5824 C   0  0  0  0  0  0  0  0  0  0  0  0
    3.4766   -1.3108    0.8492 S   0  0  0  0  0  0  0  0  0  0  0  0
    4.3570   -2.5164   -0.0258 C   0  0  0  0  0  0  0  0  0  0  0  0
    5.8266   -2.4050   -0.2387 C   0  0  0  0  0  0  0  0  0  0  0  0
    6.1332   -1.6807   -1.5516 C   0  0  0  0  0  0  0  0  0  0  0  0
    3.5076   -3.4714   -0.4972 C   0  0  0  0  0  0  0  0  0  0  0  0
    4.0169   -4.8333   -1.4084 Cl  0  0  0  0  0  0  0  0  0  0  0  0
    2.1477   -3.2485   -0.1527 C   0  0  0  0  0  0  0  0  0  0  0  0
    0.9061   -4.3584   -0.5560 Cl  0  0  0  0  0  0  0  0  0  0  0  0
   -0.3749   -1.3366    0.2477 C   0  0  0  0  0  0  0  0  0  0  0  0
   -1.6154   -0.8286    0.7085 C   0  0  0  0  0  0  0  0  0  0  0  0
   -1.7910   -0.5423    2.0761 C   0  0  0  0  0  0  0  0  0  0  0  0
   -3.0718   -0.0810    2.5807 C   0  0  0  0  0  0  0  0  0  0  0  0
   -3.2060    1.3493    3.5594 S   0  0  0  0  0  0  0  0  0  0  0  0
   -4.9254    1.1919    3.6930 C   0  0  0  0  0  0  0  0  0  0  0  0
   -5.7220    2.1555    4.5013 C   0  0  0  0  0  0  0  0  0  0  0  0
   -5.5261    1.9080    5.9983 C   0  0  0  0  0  0  0  0  0  0  0  0
   -5.3526    0.0845    3.0241 C   0  0  0  0  0  0  0  0  0  0  0  0
   -4.3063   -0.6374    2.3894 C   0  0  0  0  0  0  0  0  0  0  0  0
   -4.5821   -2.1068    1.5458 Cl  0  0  0  0  0  0  0  0  0  0  0  0
   -6.9931   -0.4107    2.9330 Cl  0  0  0  0  0  0  0  0  0  0  0  0
   -0.6921   -0.7183    2.9015 C   0  0  0  0  0  0  0  0  0  0  0  0
   -0.6488   -0.3989    4.6125 S   0  0  0  0  0  0  0  0  0  0  0  0
   -2.5274   -0.6067   -0.3461 C   0  0  0  0  0  0  0  0  0  0  0  0
   -2.0362   -0.9376   -1.5798 C   0  0  0  0  0  0  0  0  0  0  0  0
   -0.3854   -1.5344   -1.4808 S   0  0  0  0  0  0  0  0  0  0  0  0
   -2.6752   -0.8279   -2.8415 C   0  0  0  0  0  0  0  0  0  0  0  0
   -1.7322   -0.5897   -4.2764 S   0  0  0  0  0  0  0  0  0  0  0  0
   -3.1310   -0.4805   -5.2921 C   0  0  0  0  0  0  0  0  0  0  0  0
   -4.3013   -0.6142   -4.5325 C   0  0  0  0  0  0  0  0  0  0  0  0
   -4.0435   -0.8400   -3.1428 C   0  0  0  0  0  0  0  0  0  0  0  0
   -5.1208   -1.0645   -2.2705 C   0  0  0  0  0  0  0  0  0  0  0  0
   -6.4142   -0.9771   -2.7322 C   0  0  0  0  0  0  0  0  0  0  0  0
   -7.3906   -1.2201   -1.8149 O   0  0  0  0  0  0  0  0  0  0  0  0
   -8.7382   -1.1255   -2.2036 C   0  0  0  0  0  0  0  0  0  0  0  0
   -6.6650   -0.6346   -4.0825 C   0  0  0  0  0  0  0  0  0  0  0  0
   -5.6344   -0.4642   -4.9618 C   0  0  0  0  0  0  0  0  0  0  0  0
   -2.9853   -0.2492   -6.6834 C   0  0  0  0  0  0  0  0  0  0  0  0
   -1.7468    0.8256   -7.2564 S   0  0  0  0  0  0  0  0  0  0  0  0
   -2.2185    0.6490   -8.9186 C   0  0  0  0  0  0  0  0  0  0  0  0
   -3.2934   -0.2496   -9.0208 C   0  0  0  0  0  0  0  0  0  0  0  0
   -3.7111   -0.7723   -7.7580 C   0  0  0  0  0  0  0  0  0  0  0  0
   -4.6982   -1.7781   -7.6924 C   0  0  0  0  0  0  0  0  0  0  0  0
   -5.3231   -2.1814   -8.8428 C   0  0  0  0  0  0  0  0  0  0  0  0
   -6.2890   -3.1368   -8.9166 O   0  0  0  0  0  0  0  0  0  0  0  0
   -6.6772   -3.7836   -7.7299 C   0  0  0  0  0  0  0  0  0  0  0  0
   -4.9858   -1.5818  -10.0847 C   0  0  0  0  0  0  0  0  0  0  0  0
   -3.9937   -0.6554  -10.1775 C   0  0  0  0  0  0  0  0  0  0  0  0
   -1.4998    1.3104   -9.9431 C   0  0  0  0  0  0  0  0  0  0  0  0
   -1.4849    0.6895  -11.5707 S   0  0  0  0  0  0  0  0  0  0  0  0
   -0.4116    1.8919  -12.1195 C   0  0  0  0  0  0  0  0  0  0  0  0
   -0.0577    2.7659  -11.1151 C   0  0  0  0  0  0  0  0  0  0  0  0
   -0.6742    2.4442   -9.8588 C   0  0  0  0  0  0  0  0  0  0  0  0
   -0.4377    3.2800   -8.7564 C   0  0  0  0  0  0  0  0  0  0  0  0
    0.3917    4.3722   -8.8781 C   0  0  0  0  0  0  0  0  0  0  0  0
    0.5445    5.1271   -7.7543 O   0  0  0  0  0  0  0  0  0  0  0  0
    1.3732    6.2623   -7.7960 C   0  0  0  0  0  0  0  0  0  0  0  0
    1.0227    4.6644  -10.1134 C   0  0  0  0  0  0  0  0  0  0  0  0
    0.7996    3.8847  -11.2072 C   0  0  0  0  0  0  0  0  0  0  0  0
    7.1097   -2.7272   10.7079 H   0  0  0  0  0  0  0  0  0  0  0  0
    9.1105   -3.1386    8.8119 H   0  0  0  0  0  0  0  0  0  0  0  0
    9.7584   -3.6780    4.4542 H   0  0  0  0  0  0  0  0  0  0  0  0
   10.3551   -2.0100    4.6995 H   0  0  0  0  0  0  0  0  0  0  0  0
   11.4037   -3.3984    5.0721 H   0  0  0  0  0  0  0  0  0  0  0  0
    8.0257   -2.1440    4.7929 H   0  0  0  0  0  0  0  0  0  0  0  0
    5.8054   -1.5083    5.4846 H   0  0  0  0  0  0  0  0  0  0  0  0
    3.1731   -0.2750   10.1744 H   0  0  0  0  0  0  0  0  0  0  0  0
   -0.2605    2.3241   11.0964 H   0  0  0  0  0  0  0  0  0  0  0  0
   -0.8856    0.7212   11.5836 H   0  0  0  0  0  0  0  0  0  0  0  0
    0.1723    1.6393   12.6811 H   0  0  0  0  0  0  0  0  0  0  0  0
   -0.8028    0.9725    9.2590 H   0  0  0  0  0  0  0  0  0  0  0  0
   -0.5613    0.2397    6.9634 H   0  0  0  0  0  0  0  0  0  0  0  0
    2.4812   -1.7282    3.3574 H   0  0  0  0  0  0  0  0  0  0  0  0
    6.2544   -3.4093   -0.2694 H   0  0  0  0  0  0  0  0  0  0  0  0
    6.2716   -1.8582    0.5942 H   0  0  0  0  0  0  0  0  0  0  0  0
    5.7130   -0.6780   -1.5362 H   0  0  0  0  0  0  0  0  0  0  0  0
    7.2077   -1.6080   -1.6972 H   0  0  0  0  0  0  0  0  0  0  0  0
    5.7035   -2.2241   -2.3892 H   0  0  0  0  0  0  0  0  0  0  0  0
   -6.7756    2.0403    4.2416 H   0  0  0  0  0  0  0  0  0  0  0  0
   -5.4121    3.1746    4.2608 H   0  0  0  0  0  0  0  0  0  0  0  0
   -6.1112    2.6192    6.5752 H   0  0  0  0  0  0  0  0  0  0  0  0
   -5.8442    0.9016    6.2586 H   0  0  0  0  0  0  0  0  0  0  0  0
   -4.4771    2.0200    6.2622 H   0  0  0  0  0  0  0  0  0  0  0  0
   -3.4858   -0.1450   -0.2051 H   0  0  0  0  0  0  0  0  0  0  0  0
   -4.9575   -1.3240   -1.2391 H   0  0  0  0  0  0  0  0  0  0  0  0
   -9.3159   -1.3657   -1.3122 H   0  0  0  0  0  0  0  0  0  0  0  0
   -8.9943   -0.1137   -2.5351 H   0  0  0  0  0  0  0  0  0  0  0  0
   -8.9838   -1.8422   -2.9945 H   0  0  0  0  0  0  0  0  0  0  0  0
   -7.6783   -0.5078   -4.4296 H   0  0  0  0  0  0  0  0  0  0  0  0
   -5.8347   -0.1956   -5.9874 H   0  0  0  0  0  0  0  0  0  0  0  0
   -4.9218   -2.2166   -6.7343 H   0  0  0  0  0  0  0  0  0  0  0  0
   -7.4484   -4.4957   -8.0193 H   0  0  0  0  0  0  0  0  0  0  0  0
   -5.8399   -4.3210   -7.2732 H   0  0  0  0  0  0  0  0  0  0  0  0
   -7.0892   -3.0756   -7.0029 H   0  0  0  0  0  0  0  0  0  0  0  0
   -5.5338   -1.9034  -10.9556 H   0  0  0  0  0  0  0  0  0  0  0  0
   -3.7503   -0.2259  -11.1353 H   0  0  0  0  0  0  0  0  0  0  0  0
   -0.1009    1.9023  -13.1448 H   0  0  0  0  0  0  0  0  0  0  0  0
   -0.9047    3.1006   -7.8030 H   0  0  0  0  0  0  0  0  0  0  0  0
    1.0130    7.0013   -8.5195 H   0  0  0  0  0  0  0  0  0  0  0  0
    2.4105    5.9992   -8.0280 H   0  0  0  0  0  0  0  0  0  0  0  0
    1.3296    6.6916   -6.7961 H   0  0  0  0  0  0  0  0  0  0  0  0
    1.6777    5.5171  -10.1967 H   0  0  0  0  0  0  0  0  0  0  0  0
    1.2663    4.1120  -12.1537 H   0  0  0  0  0  0  0  0  0  0  0  0
  1  2  1  0  0  0  0
  2  3  1  0  0  0  0
  3  4  2  0  0  0  0
  4  5  1  0  0  0  0
  5  6  1  0  0  0  0
  6  7  2  0  0  0  0
  7  8  1  0  0  0  0
  8  9  1  0  0  0  0
  7 10  1  0  0  0  0
 10 11  2  0  0  0  0
  3 12  1  0  0  0  0
 12 13  1  0  0  0  0
 13 14  1  0  0  0  0
 14 15  2  0  0  0  0
 15 16  1  0  0  0  0
 16 17  1  0  0  0  0
 17 18  2  0  0  0  0
 18 19  1  0  0  0  0
 19 20  1  0  0  0  0
 18 21  1  0  0  0  0
 21 22  2  0  0  0  0
 14 23  1  0  0  0  0
 23 24  2  0  0  0  0
 24 25  1  0  0  0  0
 25 26  2  0  0  0  0
 26 27  1  0  0  0  0
 27 28  1  0  0  0  0
 28 29  1  0  0  0  0
 29 30  1  0  0  0  0
 30 31  1  0  0  0  0
 29 32  2  0  0  0  0
 32 33  1  0  0  0  0
 32 34  1  0  0  0  0
 34 35  1  0  0  0  0
 26 36  1  0  0  0  0
 36 37  2  0  0  0  0
 37 38  1  0  0  0  0
 38 39  1  0  0  0  0
 39 40  1  0  0  0  0
 40 41  1  0  0  0  0
 41 42  1  0  0  0  0
 42 43  1  0  0  0  0
 41 44  2  0  0  0  0
 44 45  1  0  0  0  0
 45 46  1  0  0  0  0
 44 47  1  0  0  0  0
 38 48  2  0  0  0  0
 48 49  1  0  0  0  0
 37 50  1  0  0  0  0
 50 51  2  0  0  0  0
 51 52  1  0  0  0  0
 51 53  1  0  0  0  0
 53 54  1  0  0  0  0
 54 55  1  0  0  0  0
 55 56  2  0  0  0  0
 56 57  1  0  0  0  0
 57 58  1  0  0  0  0
 58 59  2  0  0  0  0
 59 60  1  0  0  0  0
 60 61  1  0  0  0  0
 59 62  1  0  0  0  0
 62 63  2  0  0  0  0
 55 64  1  0  0  0  0
 64 65  1  0  0  0  0
 65 66  1  0  0  0  0
 66 67  2  0  0  0  0
 67 68  1  0  0  0  0
 68 69  1  0  0  0  0
 69 70  2  0  0  0  0
 70 71  1  0  0  0  0
 71 72  1  0  0  0  0
 70 73  1  0  0  0  0
 73 74  2  0  0  0  0
 66 75  1  0  0  0  0
 75 76  1  0  0  0  0
 76 77  1  0  0  0  0
 77 78  2  0  0  0  0
 78 79  1  0  0  0  0
 79 80  1  0  0  0  0
 80 81  2  0  0  0  0
 81 82  1  0  0  0  0
 82 83  1  0  0  0  0
 81 84  1  0  0  0  0
 84 85  2  0  0  0  0
  5  1  2  0  0  0  0
 16 12  2  0  0  0  0
 49 23  1  0  0  0  0
 57 53  2  0  0  0  0
 68 64  2  0  0  0  0
 79 75  2  0  0  0  0
 11  4  1  0  0  0  0
 22 15  1  0  0  0  0
 48 25  1  0  0  0  0
 63 56  1  0  0  0  0
 74 67  1  0  0  0  0
 85 78  1  0  0  0  0
 34 27  2  0  0  0  0
 52 36  1  0  0  0  0
 45 39  2  0  0  0  0
  1 86  1  0  0  0  0
  6 87  1  0  0  0  0
  9 88  1  0  0  0  0
  9 89  1  0  0  0  0
  9 90  1  0  0  0  0
 10 91  1  0  0  0  0
 11 92  1  0  0  0  0
 17 93  1  0  0  0  0
 20 94  1  0  0  0  0
 20 95  1  0  0  0  0
 20 96  1  0  0  0  0
 21 97  1  0  0  0  0
 22 98  1  0  0  0  0
 24 99  1  0  0  0  0
 30100  1  0  0  0  0
 30101  1  0  0  0  0
 31102  1  0  0  0  0
 31103  1  0  0  0  0
 31104  1  0  0  0  0
 42105  1  0  0  0  0
 42106  1  0  0  0  0
 43107  1  0  0  0  0
 43108  1  0  0  0  0
 43109  1  0  0  0  0
 50110  1  0  0  0  0
 58111  1  0  0  0  0
 61112  1  0  0  0  0
 61113  1  0  0  0  0
 61114  1  0  0  0  0
 62115  1  0  0  0  0
 63116  1  0  0  0  0
 69117  1  0  0  0  0
 72118  1  0  0  0  0
 72119  1  0  0  0  0
 72120  1  0  0  0  0
 73121  1  0  0  0  0
 74122  1  0  0  0  0
 77123  1  0  0  0  0
 80124  1  0  0  0  0
 83125  1  0  0  0  0
 83126  1  0  0  0  0
 83127  1  0  0  0  0
 84128  1  0  0  0  0
 85129  1  0  0  0  0
M  END
