
  xtb     03022223203D
 energy: -343.445154401101 gnorm: 0.000531935328 xtb: 6.4.1 (unknown)
179199  0     0  0            999 V2000
   11.5334   -0.0140   10.6343 C   0  0  0  0  0  0  0  0  0  0  0  0
   10.5886    0.3188    9.2581 S   0  0  0  0  0  0  0  0  0  0  0  0
   10.1700   -1.3516    9.0352 C   0  0  0  0  0  0  0  0  0  0  0  0
   10.7636   -2.1374   10.0273 C   0  0  0  0  0  0  0  0  0  0  0  0
   11.5474   -1.3583   10.9451 C   0  0  0  0  0  0  0  0  0  0  0  0
   12.2182   -1.9832   12.0152 C   0  0  0  0  0  0  0  0  0  0  0  0
   12.1145   -3.3409   12.1843 C   0  0  0  0  0  0  0  0  0  0  0  0
   12.7907   -3.8724   13.2411 O   0  0  0  0  0  0  0  0  0  0  0  0
   12.7201   -5.2578   13.4750 C   0  0  0  0  0  0  0  0  0  0  0  0
   11.3303   -4.1083   11.2845 C   0  0  0  0  0  0  0  0  0  0  0  0
   10.6752   -3.5280   10.2382 C   0  0  0  0  0  0  0  0  0  0  0  0
    9.3331   -1.6998    7.9413 C   0  0  0  0  0  0  0  0  0  0  0  0
    8.6827   -0.8264    7.1115 C   0  0  0  0  0  0  0  0  0  0  0  0
    7.9385   -1.4491    6.0856 C   0  0  0  0  0  0  0  0  0  0  0  0
    7.2024   -0.8401    5.0534 C   0  0  0  0  0  0  0  0  0  0  0  0
    7.1759    0.6018    4.8778 C   0  0  0  0  0  0  0  0  0  0  0  0
    5.6719    1.4574    4.7084 S   0  0  0  0  0  0  0  0  0  0  0  0
    6.4696    2.9790    4.4979 C   0  0  0  0  0  0  0  0  0  0  0  0
    5.6881    4.2190    4.2372 C   0  0  0  0  0  0  0  0  0  0  0  0
    5.0291    4.1722    2.8573 C   0  0  0  0  0  0  0  0  0  0  0  0
    7.8212    2.8158    4.5560 C   0  0  0  0  0  0  0  0  0  0  0  0
    8.9532    4.0946    4.3827 Cl  0  0  0  0  0  0  0  0  0  0  0  0
    8.2259    1.4710    4.7747 C   0  0  0  0  0  0  0  0  0  0  0  0
    9.8765    1.0009    4.8083 Cl  0  0  0  0  0  0  0  0  0  0  0  0
    6.5201   -1.6809    4.1863 C   0  0  0  0  0  0  0  0  0  0  0  0
    6.5611   -3.0921    4.2838 C   0  0  0  0  0  0  0  0  0  0  0  0
    7.3166   -3.7052    5.3018 C   0  0  0  0  0  0  0  0  0  0  0  0
    7.4079   -5.1522    5.3955 C   0  0  0  0  0  0  0  0  0  0  0  0
    7.8463   -6.1085    4.0059 S   0  0  0  0  0  0  0  0  0  0  0  0
    7.7789   -7.5929    4.8980 C   0  0  0  0  0  0  0  0  0  0  0  0
    8.0655   -8.9034    4.2498 C   0  0  0  0  0  0  0  0  0  0  0  0
    9.3450   -8.8637    3.4182 C   0  0  0  0  0  0  0  0  0  0  0  0
    7.4317   -7.3435    6.1909 C   0  0  0  0  0  0  0  0  0  0  0  0
    7.2175   -5.9665    6.4762 C   0  0  0  0  0  0  0  0  0  0  0  0
    6.6795   -5.4321    8.0128 Cl  0  0  0  0  0  0  0  0  0  0  0  0
    7.2521   -8.5605    7.3879 Cl  0  0  0  0  0  0  0  0  0  0  0  0
    7.9900   -2.8633    6.1763 C   0  0  0  0  0  0  0  0  0  0  0  0
    9.0245   -3.3645    7.4816 S   0  0  0  0  0  0  0  0  0  0  0  0
    5.7813   -3.7163    3.2833 C   0  0  0  0  0  0  0  0  0  0  0  0
    5.1970   -2.8388    2.4127 C   0  0  0  0  0  0  0  0  0  0  0  0
    5.5584   -1.1704    2.8298 S   0  0  0  0  0  0  0  0  0  0  0  0
    4.3657   -3.1089    1.2929 C   0  0  0  0  0  0  0  0  0  0  0  0
    3.2402   -1.9097    0.7615 S   0  0  0  0  0  0  0  0  0  0  0  0
    2.6120   -2.9231   -0.4968 C   0  0  0  0  0  0  0  0  0  0  0  0
    3.2795   -4.1532   -0.5173 C   0  0  0  0  0  0  0  0  0  0  0  0
    4.2877   -4.2545    0.4934 C   0  0  0  0  0  0  0  0  0  0  0  0
    5.1068   -5.3998    0.5675 C   0  0  0  0  0  0  0  0  0  0  0  0
    4.8869   -6.4402   -0.2974 C   0  0  0  0  0  0  0  0  0  0  0  0
    5.5992   -7.5966   -0.3227 O   0  0  0  0  0  0  0  0  0  0  0  0
    6.6513   -7.7544    0.5982 C   0  0  0  0  0  0  0  0  0  0  0  0
    3.8489   -6.3612   -1.2642 C   0  0  0  0  0  0  0  0  0  0  0  0
    3.0748   -5.2496   -1.3837 C   0  0  0  0  0  0  0  0  0  0  0  0
    1.5635   -2.4058   -1.2997 C   0  0  0  0  0  0  0  0  0  0  0  0
    0.9420   -1.1995   -1.1059 C   0  0  0  0  0  0  0  0  0  0  0  0
   -0.0621   -0.9073   -2.0517 C   0  0  0  0  0  0  0  0  0  0  0  0
   -0.8664    0.2470   -2.1374 C   0  0  0  0  0  0  0  0  0  0  0  0
   -0.6255    1.3939   -1.2821 C   0  0  0  0  0  0  0  0  0  0  0  0
   -1.9199    2.1880   -0.4321 S   0  0  0  0  0  0  0  0  0  0  0  0
   -0.8499    3.3506    0.2759 C   0  0  0  0  0  0  0  0  0  0  0  0
   -1.3576    4.3935    1.2088 C   0  0  0  0  0  0  0  0  0  0  0  0
   -1.7217    3.7942    2.5685 C   0  0  0  0  0  0  0  0  0  0  0  0
    0.4311    3.1210   -0.1276 C   0  0  0  0  0  0  0  0  0  0  0  0
    1.7782    4.0622    0.3677 Cl  0  0  0  0  0  0  0  0  0  0  0  0
    0.5624    2.0209   -1.0170 C   0  0  0  0  0  0  0  0  0  0  0  0
    2.0632    1.6152   -1.7466 Cl  0  0  0  0  0  0  0  0  0  0  0  0
   -1.8875    0.2255   -3.0763 C   0  0  0  0  0  0  0  0  0  0  0  0
   -2.0884   -0.8483   -3.9786 C   0  0  0  0  0  0  0  0  0  0  0  0
   -1.2076   -1.9477   -3.9702 C   0  0  0  0  0  0  0  0  0  0  0  0
   -1.3138   -2.9996   -4.9639 C   0  0  0  0  0  0  0  0  0  0  0  0
   -1.3028   -4.6813   -4.5203 S   0  0  0  0  0  0  0  0  0  0  0  0
   -1.4421   -5.1987   -6.1660 C   0  0  0  0  0  0  0  0  0  0  0  0
   -1.4302   -6.6447   -6.5190 C   0  0  0  0  0  0  0  0  0  0  0  0
   -0.0023   -7.1954   -6.5002 C   0  0  0  0  0  0  0  0  0  0  0  0
   -1.4831   -4.1212   -6.9994 C   0  0  0  0  0  0  0  0  0  0  0  0
   -1.4153   -2.8738   -6.3231 C   0  0  0  0  0  0  0  0  0  0  0  0
   -1.3696   -1.3781   -7.1656 Cl  0  0  0  0  0  0  0  0  0  0  0  0
   -1.6095   -4.2331   -8.7071 Cl  0  0  0  0  0  0  0  0  0  0  0  0
   -0.2391   -1.9644   -2.9771 C   0  0  0  0  0  0  0  0  0  0  0  0
    0.9041   -3.2467   -2.6918 S   0  0  0  0  0  0  0  0  0  0  0  0
   -3.2375   -0.6652   -4.7816 C   0  0  0  0  0  0  0  0  0  0  0  0
   -3.8837    0.5188   -4.5550 C   0  0  0  0  0  0  0  0  0  0  0  0
   -3.0791    1.4694   -3.3116 S   0  0  0  0  0  0  0  0  0  0  0  0
   -5.0880    1.0190   -5.1139 C   0  0  0  0  0  0  0  0  0  0  0  0
   -5.9719    2.2131   -4.2306 S   0  0  0  0  0  0  0  0  0  0  0  0
   -7.2647    2.2523   -5.3816 C   0  0  0  0  0  0  0  0  0  0  0  0
   -7.0007    1.3792   -6.4443 C   0  0  0  0  0  0  0  0  0  0  0  0
   -5.7557    0.6829   -6.3003 C   0  0  0  0  0  0  0  0  0  0  0  0
   -5.3242   -0.1827   -7.3163 C   0  0  0  0  0  0  0  0  0  0  0  0
   -6.1105   -0.3923   -8.4274 C   0  0  0  0  0  0  0  0  0  0  0  0
   -5.6104   -1.2478   -9.3570 O   0  0  0  0  0  0  0  0  0  0  0  0
   -6.3482   -1.4999  -10.5284 C   0  0  0  0  0  0  0  0  0  0  0  0
   -7.3536    0.2723   -8.5513 C   0  0  0  0  0  0  0  0  0  0  0  0
   -7.7828    1.1418   -7.5906 C   0  0  0  0  0  0  0  0  0  0  0  0
   -8.3698    3.0972   -5.1024 C   0  0  0  0  0  0  0  0  0  0  0  0
   -8.4479    3.9610   -4.0418 C   0  0  0  0  0  0  0  0  0  0  0  0
   -9.6720    4.6574   -3.9511 C   0  0  0  0  0  0  0  0  0  0  0  0
  -10.0744    5.5765   -2.9666 C   0  0  0  0  0  0  0  0  0  0  0  0
   -9.1974    5.9121   -1.8570 C   0  0  0  0  0  0  0  0  0  0  0  0
   -8.5029    4.6688   -0.8556 S   0  0  0  0  0  0  0  0  0  0  0  0
   -7.6716    5.8171    0.1354 C   0  0  0  0  0  0  0  0  0  0  0  0
   -6.7775    5.3773    1.2419 C   0  0  0  0  0  0  0  0  0  0  0  0
   -5.3683    5.0732    0.7259 C   0  0  0  0  0  0  0  0  0  0  0  0
   -7.9222    7.0840   -0.2994 C   0  0  0  0  0  0  0  0  0  0  0  0
   -7.2632    8.4914    0.4279 Cl  0  0  0  0  0  0  0  0  0  0  0  0
   -8.7907    7.1430   -1.4230 C   0  0  0  0  0  0  0  0  0  0  0  0
   -9.1966    8.6201   -2.1912 Cl  0  0  0  0  0  0  0  0  0  0  0  0
  -11.3500    6.1138   -3.0926 C   0  0  0  0  0  0  0  0  0  0  0  0
  -12.2250    5.7800   -4.1545 C   0  0  0  0  0  0  0  0  0  0  0  0
  -11.8149    4.8748   -5.1474 C   0  0  0  0  0  0  0  0  0  0  0  0
  -12.6887    4.4951   -6.2470 C   0  0  0  0  0  0  0  0  0  0  0  0
  -14.2747    3.8426   -5.9578 S   0  0  0  0  0  0  0  0  0  0  0  0
  -14.5833    3.6292   -7.6478 C   0  0  0  0  0  0  0  0  0  0  0  0
  -15.8526    3.0177   -8.1288 C   0  0  0  0  0  0  0  0  0  0  0  0
  -15.7797    1.4899   -8.0754 C   0  0  0  0  0  0  0  0  0  0  0  0
  -13.5085    4.0379   -8.3783 C   0  0  0  0  0  0  0  0  0  0  0  0
  -12.4343    4.5315   -7.5893 C   0  0  0  0  0  0  0  0  0  0  0  0
  -11.0072    5.1785   -8.2840 Cl  0  0  0  0  0  0  0  0  0  0  0  0
  -13.4392    3.9822  -10.0921 Cl  0  0  0  0  0  0  0  0  0  0  0  0
  -10.5454    4.3297   -5.0168 C   0  0  0  0  0  0  0  0  0  0  0  0
   -9.8350    3.1352   -6.0655 S   0  0  0  0  0  0  0  0  0  0  0  0
  -13.4723    6.4591   -4.0392 C   0  0  0  0  0  0  0  0  0  0  0  0
  -13.5457    7.2355   -2.9385 C   0  0  0  0  0  0  0  0  0  0  0  0
  -12.1102    7.2114   -1.9762 S   0  0  0  0  0  0  0  0  0  0  0  0
   12.0297    0.7845   11.1480 H   0  0  0  0  0  0  0  0  0  0  0  0
   12.8093   -1.3998   12.7021 H   0  0  0  0  0  0  0  0  0  0  0  0
   11.6942   -5.5834   13.6759 H   0  0  0  0  0  0  0  0  0  0  0  0
   13.1288   -5.8319   12.6370 H   0  0  0  0  0  0  0  0  0  0  0  0
   13.3301   -5.4347   14.3598 H   0  0  0  0  0  0  0  0  0  0  0  0
   11.2429   -5.1739   11.4248 H   0  0  0  0  0  0  0  0  0  0  0  0
   10.0834   -4.1382    9.5752 H   0  0  0  0  0  0  0  0  0  0  0  0
    8.7277    0.2386    7.2488 H   0  0  0  0  0  0  0  0  0  0  0  0
    6.3628    5.0744    4.2991 H   0  0  0  0  0  0  0  0  0  0  0  0
    4.9152    4.3300    5.0012 H   0  0  0  0  0  0  0  0  0  0  0  0
    4.4614    5.0821    2.6820 H   0  0  0  0  0  0  0  0  0  0  0  0
    4.3552    3.3214    2.7894 H   0  0  0  0  0  0  0  0  0  0  0  0
    5.7839    4.0780    2.0806 H   0  0  0  0  0  0  0  0  0  0  0  0
    7.2261   -9.1812    3.6049 H   0  0  0  0  0  0  0  0  0  0  0  0
    8.1487   -9.6579    5.0340 H   0  0  0  0  0  0  0  0  0  0  0  0
    9.5287   -9.8351    2.9673 H   0  0  0  0  0  0  0  0  0  0  0  0
   10.1950   -8.6049    4.0445 H   0  0  0  0  0  0  0  0  0  0  0  0
    9.2589   -8.1222    2.6272 H   0  0  0  0  0  0  0  0  0  0  0  0
    5.6109   -4.7751    3.2513 H   0  0  0  0  0  0  0  0  0  0  0  0
    5.9102   -5.4208    1.2826 H   0  0  0  0  0  0  0  0  0  0  0  0
    7.0630   -8.7445    0.4095 H   0  0  0  0  0  0  0  0  0  0  0  0
    6.2923   -7.6980    1.6311 H   0  0  0  0  0  0  0  0  0  0  0  0
    7.4318   -7.0014    0.4504 H   0  0  0  0  0  0  0  0  0  0  0  0
    3.7115   -7.2110   -1.9133 H   0  0  0  0  0  0  0  0  0  0  0  0
    2.3064   -5.2023   -2.1378 H   0  0  0  0  0  0  0  0  0  0  0  0
    1.1872   -0.5552   -0.2813 H   0  0  0  0  0  0  0  0  0  0  0  0
   -0.5831    5.1517    1.3351 H   0  0  0  0  0  0  0  0  0  0  0  0
   -2.2409    4.8652    0.7733 H   0  0  0  0  0  0  0  0  0  0  0  0
   -0.8482    3.3356    3.0248 H   0  0  0  0  0  0  0  0  0  0  0  0
   -2.0926    4.5709    3.2320 H   0  0  0  0  0  0  0  0  0  0  0  0
   -2.4910    3.0344    2.4509 H   0  0  0  0  0  0  0  0  0  0  0  0
   -2.0413   -7.1990   -5.8043 H   0  0  0  0  0  0  0  0  0  0  0  0
   -1.8589   -6.7655   -7.5153 H   0  0  0  0  0  0  0  0  0  0  0  0
    0.4335   -7.0756   -5.5111 H   0  0  0  0  0  0  0  0  0  0  0  0
   -0.0051   -8.2513   -6.7565 H   0  0  0  0  0  0  0  0  0  0  0  0
    0.6162   -6.6636   -7.2189 H   0  0  0  0  0  0  0  0  0  0  0  0
   -3.6091   -1.4219   -5.4452 H   0  0  0  0  0  0  0  0  0  0  0  0
   -4.3673   -0.6715   -7.2637 H   0  0  0  0  0  0  0  0  0  0  0  0
   -6.5061   -0.5871  -11.1116 H   0  0  0  0  0  0  0  0  0  0  0  0
   -5.7434   -2.1949  -11.1090 H   0  0  0  0  0  0  0  0  0  0  0  0
   -7.3146   -1.9638  -10.3055 H   0  0  0  0  0  0  0  0  0  0  0  0
   -7.9694    0.1091   -9.4211 H   0  0  0  0  0  0  0  0  0  0  0  0
   -8.7214    1.6571   -7.7153 H   0  0  0  0  0  0  0  0  0  0  0  0
   -7.6374    4.0873   -3.3475 H   0  0  0  0  0  0  0  0  0  0  0  0
   -7.1926    4.4825    1.7086 H   0  0  0  0  0  0  0  0  0  0  0  0
   -6.7289    6.1725    1.9883 H   0  0  0  0  0  0  0  0  0  0  0  0
   -4.9367    5.9610    0.2701 H   0  0  0  0  0  0  0  0  0  0  0  0
   -5.3965    4.2787   -0.0162 H   0  0  0  0  0  0  0  0  0  0  0  0
   -4.7346    4.7574    1.5501 H   0  0  0  0  0  0  0  0  0  0  0  0
  -16.6802    3.3628   -7.5063 H   0  0  0  0  0  0  0  0  0  0  0  0
  -16.0286    3.3404   -9.1566 H   0  0  0  0  0  0  0  0  0  0  0  0
  -15.6087    1.1561   -7.0547 H   0  0  0  0  0  0  0  0  0  0  0  0
  -16.7111    1.0591   -8.4329 H   0  0  0  0  0  0  0  0  0  0  0  0
  -14.9663    1.1297   -8.7000 H   0  0  0  0  0  0  0  0  0  0  0  0
  -14.2690    6.3621   -4.7533 H   0  0  0  0  0  0  0  0  0  0  0  0
  -14.3669    7.8456   -2.6170 H   0  0  0  0  0  0  0  0  0  0  0  0
  1  2  1  0  0  0  0
  2  3  1  0  0  0  0
  3  4  2  0  0  0  0
  4  5  1  0  0  0  0
  5  6  1  0  0  0  0
  6  7  2  0  0  0  0
  7  8  1  0  0  0  0
  8  9  1  0  0  0  0
  7 10  1  0  0  0  0
 10 11  2  0  0  0  0
  3 12  1  0  0  0  0
 12 13  2  0  0  0  0
 13 14  1  0  0  0  0
 14 15  2  0  0  0  0
 15 16  1  0  0  0  0
 16 17  1  0  0  0  0
 17 18  1  0  0  0  0
 18 19  1  0  0  0  0
 19 20  1  0  0  0  0
 18 21  2  0  0  0  0
 21 22  1  0  0  0  0
 21 23  1  0  0  0  0
 23 24  1  0  0  0  0
 15 25  1  0  0  0  0
 25 26  2  0  0  0  0
 26 27  1  0  0  0  0
 27 28  1  0  0  0  0
 28 29  1  0  0  0  0
 29 30  1  0  0  0  0
 30 31  1  0  0  0  0
 31 32  1  0  0  0  0
 30 33  2  0  0  0  0
 33 34  1  0  0  0  0
 34 35  1  0  0  0  0
 33 36  1  0  0  0  0
 27 37  2  0  0  0  0
 37 38  1  0  0  0  0
 26 39  1  0  0  0  0
 39 40  2  0  0  0  0
 40 41  1  0  0  0  0
 40 42  1  0  0  0  0
 42 43  1  0  0  0  0
 43 44  1  0  0  0  0
 44 45  2  0  0  0  0
 45 46  1  0  0  0  0
 46 47  1  0  0  0  0
 47 48  2  0  0  0  0
 48 49  1  0  0  0  0
 49 50  1  0  0  0  0
 48 51  1  0  0  0  0
 51 52  2  0  0  0  0
 44 53  1  0  0  0  0
 53 54  2  0  0  0  0
 54 55  1  0  0  0  0
 55 56  2  0  0  0  0
 56 57  1  0  0  0  0
 57 58  1  0  0  0  0
 58 59  1  0  0  0  0
 59 60  1  0  0  0  0
 60 61  1  0  0  0  0
 59 62  2  0  0  0  0
 62 63  1  0  0  0  0
 62 64  1  0  0  0  0
 64 65  1  0  0  0  0
 56 66  1  0  0  0  0
 66 67  2  0  0  0  0
 67 68  1  0  0  0  0
 68 69  1  0  0  0  0
 69 70  1  0  0  0  0
 70 71  1  0  0  0  0
 71 72  1  0  0  0  0
 72 73  1  0  0  0  0
 71 74  2  0  0  0  0
 74 75  1  0  0  0  0
 75 76  1  0  0  0  0
 74 77  1  0  0  0  0
 68 78  2  0  0  0  0
 78 79  1  0  0  0  0
 67 80  1  0  0  0  0
 80 81  2  0  0  0  0
 81 82  1  0  0  0  0
 81 83  1  0  0  0  0
 83 84  1  0  0  0  0
 84 85  1  0  0  0  0
 85 86  2  0  0  0  0
 86 87  1  0  0  0  0
 87 88  1  0  0  0  0
 88 89  2  0  0  0  0
 89 90  1  0  0  0  0
 90 91  1  0  0  0  0
 89 92  1  0  0  0  0
 92 93  2  0  0  0  0
 85 94  1  0  0  0  0
 94 95  2  0  0  0  0
 95 96  1  0  0  0  0
 96 97  2  0  0  0  0
 97 98  1  0  0  0  0
 98 99  1  0  0  0  0
 99100  1  0  0  0  0
100101  1  0  0  0  0
101102  1  0  0  0  0
100103  2  0  0  0  0
103104  1  0  0  0  0
103105  1  0  0  0  0
105106  1  0  0  0  0
 97107  1  0  0  0  0
107108  2  0  0  0  0
108109  1  0  0  0  0
109110  1  0  0  0  0
110111  1  0  0  0  0
111112  1  0  0  0  0
112113  1  0  0  0  0
113114  1  0  0  0  0
112115  2  0  0  0  0
115116  1  0  0  0  0
116117  1  0  0  0  0
115118  1  0  0  0  0
109119  2  0  0  0  0
119120  1  0  0  0  0
108121  1  0  0  0  0
121122  2  0  0  0  0
122123  1  0  0  0  0
  5  1  2  0  0  0  0
 38 12  1  0  0  0  0
 46 42  2  0  0  0  0
 79 53  1  0  0  0  0
 87 83  2  0  0  0  0
120 94  1  0  0  0  0
 11  4  1  0  0  0  0
 37 14  1  0  0  0  0
 52 45  1  0  0  0  0
 78 55  1  0  0  0  0
 93 86  1  0  0  0  0
119 96  1  0  0  0  0
 23 16  2  0  0  0  0
 41 25  1  0  0  0  0
 64 57  2  0  0  0  0
 82 66  1  0  0  0  0
105 98  2  0  0  0  0
123107  1  0  0  0  0
 34 28  2  0  0  0  0
 75 69  2  0  0  0  0
116110  2  0  0  0  0
  1124  1  0  0  0  0
  6125  1  0  0  0  0
  9126  1  0  0  0  0
  9127  1  0  0  0  0
  9128  1  0  0  0  0
 10129  1  0  0  0  0
 11130  1  0  0  0  0
 13131  1  0  0  0  0
 19132  1  0  0  0  0
 19133  1  0  0  0  0
 20134  1  0  0  0  0
 20135  1  0  0  0  0
 20136  1  0  0  0  0
 31137  1  0  0  0  0
 31138  1  0  0  0  0
 32139  1  0  0  0  0
 32140  1  0  0  0  0
 32141  1  0  0  0  0
 39142  1  0  0  0  0
 47143  1  0  0  0  0
 50144  1  0  0  0  0
 50145  1  0  0  0  0
 50146  1  0  0  0  0
 51147  1  0  0  0  0
 52148  1  0  0  0  0
 54149  1  0  0  0  0
 60150  1  0  0  0  0
 60151  1  0  0  0  0
 61152  1  0  0  0  0
 61153  1  0  0  0  0
 61154  1  0  0  0  0
 72155  1  0  0  0  0
 72156  1  0  0  0  0
 73157  1  0  0  0  0
 73158  1  0  0  0  0
 73159  1  0  0  0  0
 80160  1  0  0  0  0
 88161  1  0  0  0  0
 91162  1  0  0  0  0
 91163  1  0  0  0  0
 91164  1  0  0  0  0
 92165  1  0  0  0  0
 93166  1  0  0  0  0
 95167  1  0  0  0  0
101168  1  0  0  0  0
101169  1  0  0  0  0
102170  1  0  0  0  0
102171  1  0  0  0  0
102172  1  0  0  0  0
113173  1  0  0  0  0
113174  1  0  0  0  0
114175  1  0  0  0  0
114176  1  0  0  0  0
114177  1  0  0  0  0
121178  1  0  0  0  0
122179  1  0  0  0  0
M  END
