94

C          3.18460       -4.65520       -0.93420
S          3.87920       -6.22300       -0.75930
C          5.35880       -5.56370       -0.15590
C          5.29190       -4.21740       -0.08950
C          4.04970       -3.68170       -0.54070
C          3.97750       -2.23250       -0.41730
C          5.13040       -1.72580        0.06090
S          6.46320       -2.91150        0.36440
O          6.66090       -2.93190        1.81920
C          2.71500       -1.54910       -0.57560
C          2.46060       -0.23310       -0.48180
C          3.37100        0.87290       -0.58790
S          4.65520        0.83390       -1.78580
C          5.03920        2.49680       -1.51960
C          4.23840        3.03490       -0.57730
C          3.28730        2.12740       -0.02650
C          2.41920        2.78090        0.94290
C          2.65220        4.10470        1.01320
S          4.06040        4.72700        0.05650
O          3.53280        5.53250       -1.05000
C          1.38570        2.18020        1.77550
C          1.46220        1.04100        2.47040
C          2.59940        0.14760        2.56130
S          4.15450        0.83890        2.97810
C          4.88250       -0.72070        3.10140
C          3.98900       -1.68890        2.81940
C          2.67800       -1.22180        2.49960
C          1.79490       -2.32940        2.12960
C          2.42520       -3.51830        2.27510
S          4.18320       -3.47990        2.70600
O          4.31590       -4.01410        4.05940
C          0.45720       -2.30560        1.58950
C         -0.35250       -1.26080        1.32800
C         -1.64490       -1.38750        0.74300
S         -2.06680       -2.76820       -0.21890
C         -3.68870       -2.21680       -0.44810
C         -3.91240       -1.02790        0.23070
C         -2.73570       -0.52290        0.87090
C         -2.78630        0.70490        1.56390
C         -3.97640        1.38310        1.63850
O         -4.17400        2.55960        2.27530
C         -3.08450        3.15880        2.94630
C         -5.14890        0.85850        1.02040
C         -5.12360       -0.30350        0.32090
C         -4.57960       -2.96720       -1.29180
S         -6.04040       -3.70780       -0.66980
C         -6.34630       -4.50620       -2.17520
C         -5.39530       -4.21070       -3.08550
C         -4.40520       -3.30910       -2.60940
C         -3.41730       -2.97040       -3.62240
C         -3.58020       -3.68970       -4.74590
S         -5.07420       -4.73380       -4.79950
O         -4.66430       -6.13760       -4.75850
C         -2.44260       -1.90810       -3.43870
C         -2.78830       -0.74590       -2.86270
C         -1.90670        0.33850       -2.56910
S         -0.16960        0.15060       -2.71280
C          0.12050        1.70220       -2.00970
C         -1.03960        2.31150       -1.68880
C         -2.20670        1.57480       -2.03490
C         -3.42180        2.29630       -1.69210
C         -3.16430        3.42820       -1.01190
S         -1.41370        3.86830       -0.84120
O         -1.04260        3.66380        0.57140
C         -4.77580        1.92990       -2.09220
C         -5.09050        1.41110       -3.27130
H          2.19100       -4.56320       -1.32530
H          6.15910       -6.21800        0.12330
H          5.33210       -0.70010        0.30070
H          1.86270       -2.21030       -0.64540
H          1.42340        0.06010       -0.37450
H          5.81570        2.96160       -2.09240
H          2.11040        4.79260        1.63580
H          0.49740        2.79080        1.86680
H          0.63410        0.77400        3.11770
H          5.91630       -0.82440        3.36090
H          1.97720       -4.47420        2.06880
H          0.08110       -3.29410        1.34660
H         -0.05550       -0.25640        1.57760
H         -1.88910        1.09130        2.01690
H         -3.47860        4.07300        3.38620
H         -2.70450        2.50850        3.74000
H         -2.27680        3.40530        2.25140
H         -6.05790        1.42800        1.13490
H         -6.01190       -0.69420       -0.15170
H         -7.20110       -5.14490       -2.26840
H         -2.97600       -3.61550       -5.63160
H         -1.44490       -2.06260       -3.82600
H         -3.81210       -0.59500       -2.55030
H          1.12400        2.05510       -1.88310
H         -3.90330        4.11800       -0.64760
H         -5.55130        2.20300       -1.39060
H         -6.11380        1.21690       -3.54260
H         -4.34590        1.18520       -4.01640
