99

C          8.92110        2.68110        5.06880
C          7.70500        2.30000        4.41840
C          7.61240        0.77930        4.30600
C          8.89050        0.37930        4.95150
C          9.60430        1.55190        5.37540
C         10.72330        0.67040        5.91350
C          9.84190       -0.47160        5.40280
C          6.75090        3.18420        3.94840
C          5.57530        2.82680        3.31860
C          4.64120        3.76680        2.83290
C          3.38710        3.45790        2.15850
C          2.65450        4.73310        1.74750
C          3.59050        5.76520        2.26110
C          4.71480        5.14700        2.87510
C          5.30200        6.51720        3.19120
C          4.03640        7.02890        2.49980
C          2.90520        2.19270        1.92320
C          1.71940        1.88250        1.27090
C          1.28870        0.55710        1.09280
C          0.08300        0.12540        0.36080
C         -0.11540       -1.38030        0.48720
C          1.12210       -1.76400        1.21080
C          1.87410       -0.60300        1.55050
C          2.91090       -1.47460        2.24950
C          1.99350       -2.61800        1.81000
C         -0.63250        0.93720       -0.45780
C         -1.72640        0.58680       -1.29220
C         -2.75350       -0.29200       -1.06290
S         -3.69460       -0.86990       -2.43630
C         -4.72810       -1.86730       -1.45370
C         -4.38410       -1.72750       -0.09620
C         -3.30450       -0.82860        0.13870
C         -2.95630       -0.49010        1.44310
C         -3.60310       -1.09080        2.51440
O         -3.19990       -0.68010        3.75130
C         -3.81850       -1.23470        4.88490
C         -4.58480       -2.06730        2.28060
C         -4.97180       -2.37590        1.00090
C         -5.82370       -2.59240       -2.00450
C         -5.92760       -3.09980       -3.36110
C         -7.30870       -3.69490       -3.61650
C         -7.94470       -3.49370       -2.29180
C         -7.02060       -2.89190       -1.38590
C         -8.11280       -2.82960       -0.32060
C         -8.97860       -3.46240       -1.41040
C         -4.91090       -3.11600       -4.29220
C         -4.99830       -3.59320       -5.58640
C         -3.88970       -3.55220       -6.46240
C         -3.83330       -4.01750       -7.82220
C         -2.46130       -3.77880       -8.44130
C         -1.75590       -3.13660       -7.30320
C         -2.62390       -3.03720       -6.18790
C         -1.52350       -2.36470       -5.37640
C         -0.71000       -2.53850       -6.66100
C         -4.88950       -4.62250       -8.52260
C         -4.83490       -5.06110       -9.80060
H          9.19440        3.70510        5.25480
H          7.54880        0.46070        3.26340
H          6.73650        0.39340        4.83180
H         11.68410        0.78760        5.41310
H         10.86540        0.71250        6.99300
H          9.97230       -1.53690        5.41790
H          6.94650        4.24040        4.08390
H          5.35650        1.77880        3.18020
H          1.66550        4.79120        2.20790
H          2.52530        4.78640        0.66370
H          6.24090        6.74610        2.68720
H          5.38800        6.75050        4.25240
H          3.67760        8.02000        2.30010
H          3.49240        1.35380        2.27110
H          1.09950        2.68130        0.89350
H         -0.23270       -1.84870       -0.49210
H         -1.00650       -1.62060        1.07450
H          3.90390       -1.46470        1.79960
H          2.99250       -1.32360        3.32590
H          2.05780       -3.68080        1.94230
H         -0.25130        1.93950       -0.61730
H         -1.73320        1.07330       -2.26220
H         -2.20890        0.26090        1.64150
H         -3.35860       -0.74230        5.74040
H         -3.64310       -2.31350        4.95430
H         -4.89610       -1.03990        4.89290
H         -5.05480       -2.57740        3.10660
H         -5.72800       -3.12280        0.83040
H         -7.83020       -3.16630       -4.41800
H         -7.23940       -4.74830       -3.89710
H         -7.95280       -3.44640        0.56360
H         -8.39540       -1.82270       -0.01480
H        -10.01290       -3.74530       -1.42990
H         -3.94860       -2.72700       -3.99310
H         -5.93130       -3.99530       -5.94990
H         -1.99630       -4.71750       -8.75230
H         -2.52720       -3.13210       -9.31950
H         -1.73060       -1.33710       -5.07910
H         -1.17120       -2.93030       -4.51410
H          0.29730       -2.27300       -6.91720
H         -5.82130       -4.74380       -7.98520
H         -5.68800       -5.51630      -10.27090
H         -3.94440       -4.97510      -10.39780
