
  xtb     03032205483D
 energy: -181.772829139501 gnorm: 0.000437003221 xtb: 6.4.1 (unknown)
 94105  0     0  0            999 V2000
   13.3914   -2.6439    1.1977 C   0  0  0  0  0  0  0  0  0  0  0  0
   13.5368   -1.1307    0.3666 S   0  0  0  0  0  0  0  0  0  0  0  0
   11.8354   -0.7234    0.5786 C   0  0  0  0  0  0  0  0  0  0  0  0
   11.2463   -1.7290    1.3029 C   0  0  0  0  0  0  0  0  0  0  0  0
   12.1175   -2.8108    1.6326 C   0  0  0  0  0  0  0  0  0  0  0  0
   11.3649   -3.7285    2.3293 N   0  0  0  0  0  0  0  0  0  0  0  0
   10.0675   -3.2720    2.4648 C   0  0  0  0  0  0  0  0  0  0  0  0
    9.1503   -3.8361    3.0035 O   0  0  0  0  0  0  0  0  0  0  0  0
   10.0217   -2.0305    1.8504 N   0  0  0  0  0  0  0  0  0  0  0  0
   11.3076    0.4965    0.0489 C   0  0  0  0  0  0  0  0  0  0  0  0
   10.0295    0.7144   -0.3336 C   0  0  0  0  0  0  0  0  0  0  0  0
    9.0092   -0.2745   -0.4707 C   0  0  0  0  0  0  0  0  0  0  0  0
    7.3146    0.1396   -0.2389 S   0  0  0  0  0  0  0  0  0  0  0  0
    6.7429   -1.5050   -0.4983 C   0  0  0  0  0  0  0  0  0  0  0  0
    7.8344   -2.2966   -0.7875 C   0  0  0  0  0  0  0  0  0  0  0  0
    9.0767   -1.6128   -0.7874 C   0  0  0  0  0  0  0  0  0  0  0  0
   10.0380   -2.5258   -1.1530 N   0  0  0  0  0  0  0  0  0  0  0  0
    9.4589   -3.7661   -1.3552 C   0  0  0  0  0  0  0  0  0  0  0  0
   10.0231   -4.7840   -1.6645 O   0  0  0  0  0  0  0  0  0  0  0  0
    8.1047   -3.6031   -1.1262 N   0  0  0  0  0  0  0  0  0  0  0  0
    5.3612   -1.7843   -0.3775 C   0  0  0  0  0  0  0  0  0  0  0  0
    4.7971   -3.0182   -0.3780 C   0  0  0  0  0  0  0  0  0  0  0  0
    3.4074   -3.2476   -0.2716 C   0  0  0  0  0  0  0  0  0  0  0  0
    2.2302   -1.9393   -0.2049 S   0  0  0  0  0  0  0  0  0  0  0  0
    0.8434   -3.0228   -0.1123 C   0  0  0  0  0  0  0  0  0  0  0  0
    1.3161   -4.3205   -0.1266 C   0  0  0  0  0  0  0  0  0  0  0  0
    2.7204   -4.4432   -0.2143 C   0  0  0  0  0  0  0  0  0  0  0  0
    3.0049   -5.7885   -0.2207 N   0  0  0  0  0  0  0  0  0  0  0  0
    1.8315   -6.5207   -0.1348 C   0  0  0  0  0  0  0  0  0  0  0  0
    1.7290   -7.7197   -0.1145 O   0  0  0  0  0  0  0  0  0  0  0  0
    0.8030   -5.5959   -0.0832 N   0  0  0  0  0  0  0  0  0  0  0  0
   -0.4838   -2.5562   -0.0541 C   0  0  0  0  0  0  0  0  0  0  0  0
   -0.8268   -1.2377   -0.0592 C   0  0  0  0  0  0  0  0  0  0  0  0
   -2.1353   -0.7325   -0.0330 C   0  0  0  0  0  0  0  0  0  0  0  0
   -3.5281   -1.7754    0.0085 S   0  0  0  0  0  0  0  0  0  0  0  0
   -4.6521   -0.4462   -0.0173 C   0  0  0  0  0  0  0  0  0  0  0  0
   -3.9607    0.7760   -0.0507 C   0  0  0  0  0  0  0  0  0  0  0  0
   -2.5435    0.6130   -0.0567 C   0  0  0  0  0  0  0  0  0  0  0  0
   -1.6972    1.7367   -0.0883 C   0  0  0  0  0  0  0  0  0  0  0  0
   -2.2484    2.9939   -0.1176 C   0  0  0  0  0  0  0  0  0  0  0  0
   -1.5487    4.1563   -0.1498 O   0  0  0  0  0  0  0  0  0  0  0  0
   -0.1426    4.0964   -0.1517 C   0  0  0  0  0  0  0  0  0  0  0  0
   -3.6582    3.1536   -0.1174 C   0  0  0  0  0  0  0  0  0  0  0  0
   -4.4951    2.0808   -0.0842 C   0  0  0  0  0  0  0  0  0  0  0  0
   -6.0325   -0.7227   -0.0134 C   0  0  0  0  0  0  0  0  0  0  0  0
   -7.2829    0.5192   -0.0291 S   0  0  0  0  0  0  0  0  0  0  0  0
   -8.6153   -0.6242   -0.0467 C   0  0  0  0  0  0  0  0  0  0  0  0
   -8.0722   -1.8956   -0.0156 C   0  0  0  0  0  0  0  0  0  0  0  0
   -6.6635   -1.9546   -0.0085 C   0  0  0  0  0  0  0  0  0  0  0  0
   -6.3162   -3.2848   -0.0022 N   0  0  0  0  0  0  0  0  0  0  0  0
   -7.4558   -4.0702   -0.0076 C   0  0  0  0  0  0  0  0  0  0  0  0
   -7.5073   -5.2731   -0.0055 O   0  0  0  0  0  0  0  0  0  0  0  0
   -8.5275   -3.1929   -0.0143 N   0  0  0  0  0  0  0  0  0  0  0  0
   -9.9985   -0.3256    0.0232 C   0  0  0  0  0  0  0  0  0  0  0  0
  -10.7073    0.8203   -0.1432 C   0  0  0  0  0  0  0  0  0  0  0  0
  -10.3614    2.1189   -0.6012 C   0  0  0  0  0  0  0  0  0  0  0  0
   -8.8948    2.6100   -1.4270 S   0  0  0  0  0  0  0  0  0  0  0  0
   -9.4483    4.2503   -1.7224 C   0  0  0  0  0  0  0  0  0  0  0  0
  -10.7098    4.3846   -1.1949 C   0  0  0  0  0  0  0  0  0  0  0  0
  -11.2121    3.2075   -0.5872 C   0  0  0  0  0  0  0  0  0  0  0  0
  -12.4691    3.5035   -0.1160 N   0  0  0  0  0  0  0  0  0  0  0  0
  -12.7810    4.8233   -0.3968 C   0  0  0  0  0  0  0  0  0  0  0  0
  -13.8014    5.3989   -0.1180 O   0  0  0  0  0  0  0  0  0  0  0  0
  -11.6876    5.3447   -1.0636 N   0  0  0  0  0  0  0  0  0  0  0  0
   -8.5879    5.1592   -2.4180 C   0  0  0  0  0  0  0  0  0  0  0  0
   -8.8898    6.4098   -2.7665 C   0  0  0  0  0  0  0  0  0  0  0  0
   14.2447   -3.2814    1.2938 H   0  0  0  0  0  0  0  0  0  0  0  0
   11.6719   -4.6217    2.6721 H   0  0  0  0  0  0  0  0  0  0  0  0
    9.2011   -1.4509    1.8455 H   0  0  0  0  0  0  0  0  0  0  0  0
   12.0154    1.3093   -0.0352 H   0  0  0  0  0  0  0  0  0  0  0  0
    9.7271    1.7270   -0.5629 H   0  0  0  0  0  0  0  0  0  0  0  0
   11.0162   -2.3443   -1.2923 H   0  0  0  0  0  0  0  0  0  0  0  0
    7.4477   -4.3571   -1.2160 H   0  0  0  0  0  0  0  0  0  0  0  0
    4.7153   -0.9248   -0.2581 H   0  0  0  0  0  0  0  0  0  0  0  0
    5.4144   -3.9030   -0.4474 H   0  0  0  0  0  0  0  0  0  0  0  0
    3.9129   -6.2176   -0.2489 H   0  0  0  0  0  0  0  0  0  0  0  0
   -0.1645   -5.8574   -0.0118 H   0  0  0  0  0  0  0  0  0  0  0  0
   -1.2594   -3.3103   -0.0131 H   0  0  0  0  0  0  0  0  0  0  0  0
   -0.0275   -0.5098   -0.0963 H   0  0  0  0  0  0  0  0  0  0  0  0
   -0.6305    1.5870   -0.0884 H   0  0  0  0  0  0  0  0  0  0  0  0
    0.2392    3.6153    0.7544 H   0  0  0  0  0  0  0  0  0  0  0  0
    0.2347    3.5656   -1.0316 H   0  0  0  0  0  0  0  0  0  0  0  0
    0.1969    5.1303   -0.1813 H   0  0  0  0  0  0  0  0  0  0  0  0
   -4.0424    4.1606   -0.1434 H   0  0  0  0  0  0  0  0  0  0  0  0
   -5.5622    2.2278   -0.0861 H   0  0  0  0  0  0  0  0  0  0  0  0
   -5.3853   -3.6636    0.0003 H   0  0  0  0  0  0  0  0  0  0  0  0
   -9.4844   -3.4992   -0.0265 H   0  0  0  0  0  0  0  0  0  0  0  0
  -10.5879   -1.1982    0.2840 H   0  0  0  0  0  0  0  0  0  0  0  0
  -11.7656    0.7426    0.0817 H   0  0  0  0  0  0  0  0  0  0  0  0
  -13.0938    2.8884    0.3750 H   0  0  0  0  0  0  0  0  0  0  0  0
  -11.6459    6.2991   -1.3739 H   0  0  0  0  0  0  0  0  0  0  0  0
   -7.6172    4.7520   -2.6678 H   0  0  0  0  0  0  0  0  0  0  0  0
   -9.8441    6.8571   -2.5508 H   0  0  0  0  0  0  0  0  0  0  0  0
   -8.1811    7.0265   -3.2890 H   0  0  0  0  0  0  0  0  0  0  0  0
  1  2  1  0  0  0  0
  2  3  1  0  0  0  0
  3  4  2  0  0  0  0
  4  5  1  0  0  0  0
  5  6  1  0  0  0  0
  6  7  1  0  0  0  0
  7  8  2  0  0  0  0
  7  9  1  0  0  0  0
  3 10  1  0  0  0  0
 10 11  2  0  0  0  0
 11 12  1  0  0  0  0
 12 13  1  0  0  0  0
 13 14  1  0  0  0  0
 14 15  2  0  0  0  0
 15 16  1  0  0  0  0
 16 17  1  0  0  0  0
 17 18  1  0  0  0  0
 18 19  2  0  0  0  0
 18 20  1  0  0  0  0
 14 21  1  0  0  0  0
 21 22  2  0  0  0  0
 22 23  1  0  0  0  0
 23 24  1  0  0  0  0
 24 25  1  0  0  0  0
 25 26  2  0  0  0  0
 26 27  1  0  0  0  0
 27 28  1  0  0  0  0
 28 29  1  0  0  0  0
 29 30  2  0  0  0  0
 29 31  1  0  0  0  0
 25 32  1  0  0  0  0
 32 33  2  0  0  0  0
 33 34  1  0  0  0  0
 34 35  1  0  0  0  0
 35 36  1  0  0  0  0
 36 37  2  0  0  0  0
 37 38  1  0  0  0  0
 38 39  1  0  0  0  0
 39 40  2  0  0  0  0
 40 41  1  0  0  0  0
 41 42  1  0  0  0  0
 40 43  1  0  0  0  0
 43 44  2  0  0  0  0
 36 45  1  0  0  0  0
 45 46  1  0  0  0  0
 46 47  1  0  0  0  0
 47 48  2  0  0  0  0
 48 49  1  0  0  0  0
 49 50  1  0  0  0  0
 50 51  1  0  0  0  0
 51 52  2  0  0  0  0
 51 53  1  0  0  0  0
 47 54  1  0  0  0  0
 54 55  2  0  0  0  0
 55 56  1  0  0  0  0
 56 57  1  0  0  0  0
 57 58  1  0  0  0  0
 58 59  2  0  0  0  0
 59 60  1  0  0  0  0
 60 61  1  0  0  0  0
 61 62  1  0  0  0  0
 62 63  2  0  0  0  0
 62 64  1  0  0  0  0
 58 65  1  0  0  0  0
 65 66  2  0  0  0  0
  5  1  2  0  0  0  0
 16 12  2  0  0  0  0
 27 23  2  0  0  0  0
 38 34  2  0  0  0  0
 49 45  2  0  0  0  0
 60 56  2  0  0  0  0
  9  4  1  0  0  0  0
 20 15  1  0  0  0  0
 31 26  1  0  0  0  0
 44 37  1  0  0  0  0
 53 48  1  0  0  0  0
 64 59  1  0  0  0  0
  1 67  1  0  0  0  0
  6 68  1  0  0  0  0
  9 69  1  0  0  0  0
 10 70  1  0  0  0  0
 11 71  1  0  0  0  0
 17 72  1  0  0  0  0
 20 73  1  0  0  0  0
 21 74  1  0  0  0  0
 22 75  1  0  0  0  0
 28 76  1  0  0  0  0
 31 77  1  0  0  0  0
 32 78  1  0  0  0  0
 33 79  1  0  0  0  0
 39 80  1  0  0  0  0
 42 81  1  0  0  0  0
 42 82  1  0  0  0  0
 42 83  1  0  0  0  0
 43 84  1  0  0  0  0
 44 85  1  0  0  0  0
 50 86  1  0  0  0  0
 53 87  1  0  0  0  0
 54 88  1  0  0  0  0
 55 89  1  0  0  0  0
 61 90  1  0  0  0  0
 64 91  1  0  0  0  0
 65 92  1  0  0  0  0
 66 93  1  0  0  0  0
 66 94  1  0  0  0  0
M  END
