159

C         -0.71870       10.80600       11.54050
C          0.16390        9.79660       11.67220
C         -0.38830        8.52240       11.33840
C          0.23680        7.27160       11.35220
C          1.68260        7.10230       11.71180
C          2.57370        7.34720       10.49250
C         -0.53630        6.19580       10.95480
C         -1.89420        6.30500       10.56250
C         -2.52380        7.55580       10.56330
C         -3.94260        7.73440       10.11260
C         -4.01380        7.86070        8.58930
C         -1.74510        8.63250       10.94650
S         -2.28240       10.29480       11.00390
C         -2.43400        5.04850       10.18140
C         -1.54340        4.01890       10.26420
S          0.02220        4.54650       10.84420
C         -1.73920        2.65930        9.86880
C         -2.86420        2.09760        9.33920
C         -2.69040        0.75340        8.92130
C         -3.61000       -0.07330        8.26060
C         -5.02850        0.34800        8.02050
C         -5.87810        0.12630        9.27310
C         -3.13440       -1.29870        7.83740
C         -1.81080       -1.75310        8.06850
C         -0.90850       -0.95020        8.77800
C          0.48450       -1.40730        9.08920
C          0.48880       -2.35110       10.29300
C         -1.37280        0.29130        9.16990
S         -0.40860        1.52410        9.94250
C         -1.55490       -2.98440        7.41140
C         -2.60820       -3.44900        6.68210
S         -4.02940       -2.43450        6.85580
C         -2.58780       -4.47300        5.69000
C         -3.53860       -4.72170        4.74540
C         -3.08530       -5.53920        3.67850
C         -3.74000       -5.81680        2.47070
C         -5.17720       -5.45600        2.24720
C         -6.09980       -6.47100        2.92400
C         -2.97020       -6.39980        1.48270
C         -1.61930       -6.79270        1.66570
C         -1.00320       -6.62390        2.91340
C          0.42430       -7.01190        3.15900
C          1.37650       -5.88310        2.75790
C         -1.74310       -5.95450        3.86870
S         -1.10730       -5.36490        5.38630
C         -1.00840       -7.16700        0.44170
C         -1.82340       -7.02370       -0.64460
S         -3.45330       -6.57230       -0.18660
C         -1.42550       -6.94970       -2.01520
C         -0.17700       -7.14120       -2.53470
C         -0.01610       -6.61880       -3.84320
C          1.16540       -6.50720       -4.59250
C          2.44180       -7.16580       -4.16330
C          2.42630       -8.65460       -4.51400
C          1.09170       -5.73560       -5.73490
C         -0.10040       -5.11590       -6.19130
C         -1.30360       -5.31870       -5.50250
C         -2.58980       -4.68440       -5.93930
C         -2.71720       -3.26640       -5.37860
C         -1.21650       -6.03870       -4.32740
S         -2.51700       -6.22480       -3.17940
C          0.14220       -4.24680       -7.28020
C          1.45640       -4.16840       -7.65510
S          2.45660       -5.27430       -6.72690
C          2.00540       -3.20980       -8.54680
S          1.03350       -1.83550       -8.95980
C          2.31750       -1.05040       -9.81050
C          3.47190       -1.84170       -9.79300
C          3.29160       -3.07530       -9.08350
C          4.35400       -3.98830       -8.99090
C          5.57660       -3.68480       -9.54310
O          6.54550       -4.63230       -9.41200
C          7.82350       -4.38390       -9.94420
C          5.77070       -2.44160      -10.19060
C          4.74730       -1.54720      -10.31360
C          2.08460        0.25130      -10.33800
C          2.75590        0.95430      -11.29730
C          2.24880        2.26210      -11.51670
C          2.72510        3.23840      -12.40110
C          3.93540        3.01440      -13.25730
C          5.21510        3.28150      -12.46220
C          2.05410        4.44790      -12.39800
C          0.93330        4.72400      -11.57700
C          0.44800        3.74460      -10.70400
C         -0.70860        3.99400       -9.78270
C         -0.23840        4.66950       -8.49310
C          1.12920        2.54190      -10.69380
S          0.74680        1.18150       -9.67230
C          0.44900        6.05140      -11.78220
C          1.15910        6.73720      -12.69940
S          2.46530        5.83170      -13.38370
H         -0.55930       11.85110       11.72310
H          1.17980        9.94060       11.99300
H          1.84320        6.08430       12.07410
H          1.95320        7.79530       12.51010
H          2.42640        8.35430       10.10850
H          2.33130        6.63950        9.70310
H          3.62080        7.22400       10.75820
H         -4.35050        8.64020       10.56660
H         -4.54720        6.88680       10.43980
H         -3.60420        6.97260        8.11290
H         -3.44010        8.72310        8.25780
H         -5.04480        7.98640        8.26770
H         -3.44500        4.91750        9.84220
H         -3.78430        2.63960        9.22090
H         -5.44070       -0.23950        7.19710
H         -5.06170        1.40140        7.73640
H         -5.87560       -0.92640        9.54620
H         -5.48190        0.69860       10.10890
H         -6.90510        0.43510        9.09320
H          1.10510       -0.53630        9.31140
H          0.91090       -1.91760        8.22350
H          1.50230       -2.67790       10.51270
H          0.09040       -1.84440       11.16900
H         -0.12470       -3.22680       10.09310
H         -0.60240       -3.48390        7.41920
H         -4.50930       -4.25980        4.77820
H         -5.37960       -5.44220        1.17400
H         -5.37800       -4.45920        2.64460
H         -7.14070       -6.20550        2.75630
H         -5.92630       -7.46550        2.51920
H         -5.91500       -6.49890        3.99550
H          0.55530       -7.22700        4.22210
H          0.66460       -7.91520        2.59570
H          1.25770       -5.63750        1.70500
H          2.40790       -6.17860        2.93450
H          1.16690       -4.99100        3.34310
H          0.02660       -7.44310        0.35830
H          0.62320       -7.58760       -1.97300
H          3.28060       -6.68400       -4.67030
H          2.58040       -7.04510       -3.08700
H          1.59510       -9.15390       -4.02100
H          2.31710       -8.78570       -5.58800
H          3.35400       -9.12710       -4.19980
H         -3.42470       -5.28830       -5.57580
H         -2.63750       -4.65460       -7.02910
H         -2.70270       -3.29080       -4.29150
H         -3.65210       -2.81570       -5.70240
H         -1.89280       -2.64460       -5.72030
H         -0.61910       -3.64890       -7.74910
H          4.22960       -4.93460       -8.49210
H          8.40910       -5.27520       -9.72400
H          8.29790       -3.51750       -9.47160
H          7.78930       -4.23580      -11.02860
H          6.73800       -2.18780      -10.59410
H          4.92470       -0.60040      -10.79590
H          3.56940        0.54310      -11.86420
H          3.94250        1.98950      -13.63270
H          3.89780        3.69080      -14.11390
H          5.23250        4.31240      -12.11640
H          6.09050        3.11000      -13.08400
H          5.26850        2.62860      -11.59360
H         -1.45120        4.62240      -10.27710
H         -1.17870        3.03920       -9.53570
H          0.24000        5.62140       -8.71340
H          0.47910        4.03510       -7.97800
H         -1.08170        4.84730       -7.83020
H         -0.39340        6.46630      -11.25890
H          1.00750        7.74510      -13.03390
