179

C         11.53340       -0.01400       10.63430
S         10.58860        0.31880        9.25810
C         10.17000       -1.35160        9.03520
C         10.76360       -2.13740       10.02730
C         11.54740       -1.35830       10.94510
C         12.21820       -1.98320       12.01520
C         12.11450       -3.34090       12.18430
O         12.79070       -3.87240       13.24110
C         12.72010       -5.25780       13.47500
C         11.33030       -4.10830       11.28450
C         10.67520       -3.52800       10.23820
C          9.33310       -1.69980        7.94130
C          8.68270       -0.82640        7.11150
C          7.93850       -1.44910        6.08560
C          7.20240       -0.84010        5.05340
C          7.17590        0.60180        4.87780
S          5.67190        1.45740        4.70840
C          6.46960        2.97900        4.49790
C          5.68810        4.21900        4.23720
C          5.02910        4.17220        2.85730
C          7.82120        2.81580        4.55600
Cl         8.95320        4.09460        4.38270
C          8.22590        1.47100        4.77470
Cl         9.87650        1.00090        4.80830
C          6.52010       -1.68090        4.18630
C          6.56110       -3.09210        4.28380
C          7.31660       -3.70520        5.30180
C          7.40790       -5.15220        5.39550
S          7.84630       -6.10850        4.00590
C          7.77890       -7.59290        4.89800
C          8.06550       -8.90340        4.24980
C          9.34500       -8.86370        3.41820
C          7.43170       -7.34350        6.19090
C          7.21750       -5.96650        6.47620
Cl         6.67950       -5.43210        8.01280
Cl         7.25210       -8.56050        7.38790
C          7.99000       -2.86330        6.17630
S          9.02450       -3.36450        7.48160
C          5.78130       -3.71630        3.28330
C          5.19700       -2.83880        2.41270
S          5.55840       -1.17040        2.82980
C          4.36570       -3.10890        1.29290
S          3.24020       -1.90970        0.76150
C          2.61200       -2.92310       -0.49680
C          3.27950       -4.15320       -0.51730
C          4.28770       -4.25450        0.49340
C          5.10680       -5.39980        0.56750
C          4.88690       -6.44020       -0.29740
O          5.59920       -7.59660       -0.32270
C          6.65130       -7.75440        0.59820
C          3.84890       -6.36120       -1.26420
C          3.07480       -5.24960       -1.38370
C          1.56350       -2.40580       -1.29970
C          0.94200       -1.19950       -1.10590
C         -0.06210       -0.90730       -2.05170
C         -0.86640        0.24700       -2.13740
C         -0.62550        1.39390       -1.28210
S         -1.91990        2.18800       -0.43210
C         -0.84990        3.35060        0.27590
C         -1.35760        4.39350        1.20880
C         -1.72170        3.79420        2.56850
C          0.43110        3.12100       -0.12760
Cl         1.77820        4.06220        0.36770
C          0.56240        2.02090       -1.01700
Cl         2.06320        1.61520       -1.74660
C         -1.88750        0.22550       -3.07630
C         -2.08840       -0.84830       -3.97860
C         -1.20760       -1.94770       -3.97020
C         -1.31380       -2.99960       -4.96390
S         -1.30280       -4.68130       -4.52030
C         -1.44210       -5.19870       -6.16600
C         -1.43020       -6.64470       -6.51900
C         -0.00230       -7.19540       -6.50020
C         -1.48310       -4.12120       -6.99940
C         -1.41530       -2.87380       -6.32310
Cl        -1.36960       -1.37810       -7.16560
Cl        -1.60950       -4.23310       -8.70710
C         -0.23910       -1.96440       -2.97710
S          0.90410       -3.24670       -2.69180
C         -3.23750       -0.66520       -4.78160
C         -3.88370        0.51880       -4.55500
S         -3.07910        1.46940       -3.31160
C         -5.08800        1.01900       -5.11390
S         -5.97190        2.21310       -4.23060
C         -7.26470        2.25230       -5.38160
C         -7.00070        1.37920       -6.44430
C         -5.75570        0.68290       -6.30030
C         -5.32420       -0.18270       -7.31630
C         -6.11050       -0.39230       -8.42740
O         -5.61040       -1.24780       -9.35700
C         -6.34820       -1.49990      -10.52840
C         -7.35360        0.27230       -8.55130
C         -7.78280        1.14180       -7.59060
C         -8.36980        3.09720       -5.10240
C         -8.44790        3.96100       -4.04180
C         -9.67200        4.65740       -3.95110
C        -10.07440        5.57650       -2.96660
C         -9.19740        5.91210       -1.85700
S         -8.50290        4.66880       -0.85560
C         -7.67160        5.81710        0.13540
C         -6.77750        5.37730        1.24190
C         -5.36830        5.07320        0.72590
C         -7.92220        7.08400       -0.29940
Cl        -7.26320        8.49140        0.42790
C         -8.79070        7.14300       -1.42300
Cl        -9.19660        8.62010       -2.19120
C        -11.35000        6.11380       -3.09260
C        -12.22500        5.78000       -4.15450
C        -11.81490        4.87480       -5.14740
C        -12.68870        4.49510       -6.24700
S        -14.27470        3.84260       -5.95780
C        -14.58330        3.62920       -7.64780
C        -15.85260        3.01770       -8.12880
C        -15.77970        1.48990       -8.07540
C        -13.50850        4.03790       -8.37830
C        -12.43430        4.53150       -7.58930
Cl       -11.00720        5.17850       -8.28400
Cl       -13.43920        3.98220      -10.09210
C        -10.54540        4.32970       -5.01680
S         -9.83500        3.13520       -6.06550
C        -13.47230        6.45910       -4.03920
C        -13.54570        7.23550       -2.93850
S        -12.11020        7.21140       -1.97620
H         12.02970        0.78450       11.14800
H         12.80930       -1.39980       12.70210
H         11.69420       -5.58340       13.67590
H         13.12880       -5.83190       12.63700
H         13.33010       -5.43470       14.35980
H         11.24290       -5.17390       11.42480
H         10.08340       -4.13820        9.57520
H          8.72770        0.23860        7.24880
H          6.36280        5.07440        4.29910
H          4.91520        4.33000        5.00120
H          4.46140        5.08210        2.68200
H          4.35520        3.32140        2.78940
H          5.78390        4.07800        2.08060
H          7.22610       -9.18120        3.60490
H          8.14870       -9.65790        5.03400
H          9.52870       -9.83510        2.96730
H         10.19500       -8.60490        4.04450
H          9.25890       -8.12220        2.62720
H          5.61090       -4.77510        3.25130
H          5.91020       -5.42080        1.28260
H          7.06300       -8.74450        0.40950
H          6.29230       -7.69800        1.63110
H          7.43180       -7.00140        0.45040
H          3.71150       -7.21100       -1.91330
H          2.30640       -5.20230       -2.13780
H          1.18720       -0.55520       -0.28130
H         -0.58310        5.15170        1.33510
H         -2.24090        4.86520        0.77330
H         -0.84820        3.33560        3.02480
H         -2.09260        4.57090        3.23200
H         -2.49100        3.03440        2.45090
H         -2.04130       -7.19900       -5.80430
H         -1.85890       -6.76550       -7.51530
H          0.43350       -7.07560       -5.51110
H         -0.00510       -8.25130       -6.75650
H          0.61620       -6.66360       -7.21890
H         -3.60910       -1.42190       -5.44520
H         -4.36730       -0.67150       -7.26370
H         -6.50610       -0.58710      -11.11160
H         -5.74340       -2.19490      -11.10900
H         -7.31460       -1.96380      -10.30550
H         -7.96940        0.10910       -9.42110
H         -8.72140        1.65710       -7.71530
H         -7.63740        4.08730       -3.34750
H         -7.19260        4.48250        1.70860
H         -6.72890        6.17250        1.98830
H         -4.93670        5.96100        0.27010
H         -5.39650        4.27870       -0.01620
H         -4.73460        4.75740        1.55010
H        -16.68020        3.36280       -7.50630
H        -16.02860        3.34040       -9.15660
H        -15.60870        1.15610       -7.05470
H        -16.71110        1.05910       -8.43290
H        -14.96630        1.12970       -8.70000
H        -14.26900        6.36210       -4.75330
H        -14.36690        7.84560       -2.61700
