
  xtb     03022204303D
 energy: -237.986280699808 gnorm: 0.000205192256 xtb: 6.4.1 (unknown)
144155  0     0  0            999 V2000
    5.9733   -0.9611    0.0655 C   0  0  0  0  0  0  0  0  0  0  0  0
    7.2060   -0.8406   -1.1136 S   0  0  0  0  0  0  0  0  0  0  0  0
    7.5286    0.8026   -0.7390 C   0  0  0  0  0  0  0  0  0  0  0  0
    6.7106    1.2493    0.2629 C   0  0  0  0  0  0  0  0  0  0  0  0
    5.8099    0.2241    0.7331 C   0  0  0  0  0  0  0  0  0  0  0  0
    4.9592    0.4620    1.7637 N   0  0  0  0  0  0  0  0  0  0  0  0
    4.9818    1.6529    2.2830 C   0  0  0  0  0  0  0  0  0  0  0  0
    5.8297    2.7154    1.7511 C   0  0  0  0  0  0  0  0  0  0  0  0
    5.7412    3.9611    2.2912 N   0  0  0  0  0  0  0  0  0  0  0  0
    6.4169    5.0787    1.6796 C   0  0  0  0  0  0  0  0  0  0  0  0
    6.6725    2.5084    0.7741 N   0  0  0  0  0  0  0  0  0  0  0  0
    4.1639    1.9287    3.3794 N   0  0  0  0  0  0  0  0  0  0  0  0
    4.8152    2.2838    4.6265 C   0  0  0  0  0  0  0  0  0  0  0  0
    2.8822    1.4291    3.4748 C   0  0  0  0  0  0  0  0  0  0  0  0
    2.0132    1.3034    2.4514 C   0  0  0  0  0  0  0  0  0  0  0  0
    0.6683    0.8769    2.6247 C   0  0  0  0  0  0  0  0  0  0  0  0
    0.1221    0.1946    4.1200 S   0  0  0  0  0  0  0  0  0  0  0  0
   -1.5282    0.0538    3.5796 C   0  0  0  0  0  0  0  0  0  0  0  0
   -1.6368    0.4864    2.2546 C   0  0  0  0  0  0  0  0  0  0  0  0
   -0.3968    0.9599    1.7199 C   0  0  0  0  0  0  0  0  0  0  0  0
   -0.3499    1.4928    0.4149 C   0  0  0  0  0  0  0  0  0  0  0  0
   -1.4848    1.4914   -0.3515 C   0  0  0  0  0  0  0  0  0  0  0  0
   -1.5794    2.0077   -1.6116 O   0  0  0  0  0  0  0  0  0  0  0  0
   -0.5292    2.8183   -2.0730 C   0  0  0  0  0  0  0  0  0  0  0  0
   -2.6924    0.9421    0.1553 C   0  0  0  0  0  0  0  0  0  0  0  0
   -2.7786    0.4660    1.4263 C   0  0  0  0  0  0  0  0  0  0  0  0
   -2.4901   -0.4112    4.5116 C   0  0  0  0  0  0  0  0  0  0  0  0
   -1.9239   -1.3774    5.8492 S   0  0  0  0  0  0  0  0  0  0  0  0
   -3.4539   -1.4001    6.6223 C   0  0  0  0  0  0  0  0  0  0  0  0
   -4.3811   -0.6950    5.9039 C   0  0  0  0  0  0  0  0  0  0  0  0
   -3.8516   -0.1393    4.6814 C   0  0  0  0  0  0  0  0  0  0  0  0
   -4.6426    0.5982    3.8756 N   0  0  0  0  0  0  0  0  0  0  0  0
   -5.8710    0.8088    4.2606 C   0  0  0  0  0  0  0  0  0  0  0  0
   -6.4055    0.2427    5.4844 C   0  0  0  0  0  0  0  0  0  0  0  0
   -7.7001    0.4929    5.8239 N   0  0  0  0  0  0  0  0  0  0  0  0
   -8.3188   -0.2199    6.9146 C   0  0  0  0  0  0  0  0  0  0  0  0
   -5.6757   -0.5085    6.2675 N   0  0  0  0  0  0  0  0  0  0  0  0
   -6.7379    1.5419    3.4314 N   0  0  0  0  0  0  0  0  0  0  0  0
   -7.1531    2.8503    3.8929 C   0  0  0  0  0  0  0  0  0  0  0  0
   -6.7647    1.2899    2.0757 C   0  0  0  0  0  0  0  0  0  0  0  0
   -6.4276    0.0974    1.5581 C   0  0  0  0  0  0  0  0  0  0  0  0
   -6.2964   -0.2584    0.1908 C   0  0  0  0  0  0  0  0  0  0  0  0
   -6.8788    0.5823   -1.2063 S   0  0  0  0  0  0  0  0  0  0  0  0
   -6.0163   -0.4442   -2.2962 C   0  0  0  0  0  0  0  0  0  0  0  0
   -5.2845   -1.3886   -1.6272 C   0  0  0  0  0  0  0  0  0  0  0  0
   -5.4724   -1.3004   -0.2091 C   0  0  0  0  0  0  0  0  0  0  0  0
   -4.7637   -2.0591    0.6532 N   0  0  0  0  0  0  0  0  0  0  0  0
   -3.8547   -2.8311    0.1397 C   0  0  0  0  0  0  0  0  0  0  0  0
   -3.7121   -2.9981   -1.3021 C   0  0  0  0  0  0  0  0  0  0  0  0
   -2.8932   -3.9752   -1.7680 N   0  0  0  0  0  0  0  0  0  0  0  0
   -2.5379   -4.0594   -3.1611 C   0  0  0  0  0  0  0  0  0  0  0  0
   -4.4235   -2.3037   -2.1542 N   0  0  0  0  0  0  0  0  0  0  0  0
   -3.0226   -3.5120    1.0346 N   0  0  0  0  0  0  0  0  0  0  0  0
   -3.5919   -3.7517    2.3483 C   0  0  0  0  0  0  0  0  0  0  0  0
   -1.6718   -3.1933    1.0230 C   0  0  0  0  0  0  0  0  0  0  0  0
   -1.0657   -2.3757    0.1456 C   0  0  0  0  0  0  0  0  0  0  0  0
    0.2977   -1.9894    0.2031 C   0  0  0  0  0  0  0  0  0  0  0  0
    1.3529   -2.2914    1.5470 S   0  0  0  0  0  0  0  0  0  0  0  0
    2.6219   -1.3441    0.8801 C   0  0  0  0  0  0  0  0  0  0  0  0
    2.2662   -0.8195   -0.3326 C   0  0  0  0  0  0  0  0  0  0  0  0
    0.9443   -1.1974   -0.7319 C   0  0  0  0  0  0  0  0  0  0  0  0
    0.4308   -0.8286   -1.9247 N   0  0  0  0  0  0  0  0  0  0  0  0
    1.1794   -0.0915   -2.7081 C   0  0  0  0  0  0  0  0  0  0  0  0
    2.5264    0.3085   -2.2997 C   0  0  0  0  0  0  0  0  0  0  0  0
    3.2875    1.0983   -3.1141 N   0  0  0  0  0  0  0  0  0  0  0  0
    4.6488    1.4097   -2.7511 C   0  0  0  0  0  0  0  0  0  0  0  0
    3.0359   -0.0475   -1.1509 N   0  0  0  0  0  0  0  0  0  0  0  0
    0.6350    0.2048   -3.9266 N   0  0  0  0  0  0  0  0  0  0  0  0
   -0.6246   -0.4492   -4.2232 C   0  0  0  0  0  0  0  0  0  0  0  0
    1.1759    1.0490   -4.8921 C   0  0  0  0  0  0  0  0  0  0  0  0
    1.3386    0.6941   -6.1804 C   0  0  0  0  0  0  0  0  0  0  0  0
    1.2169   -0.6586   -6.6433 C   0  0  0  0  0  0  0  0  0  0  0  0
    0.4965   -1.0485   -8.1750 S   0  0  0  0  0  0  0  0  0  0  0  0
    0.5820   -2.7378   -7.8888 C   0  0  0  0  0  0  0  0  0  0  0  0
    1.1467   -3.0122   -6.6715 C   0  0  0  0  0  0  0  0  0  0  0  0
    1.5496   -1.8243   -5.9714 C   0  0  0  0  0  0  0  0  0  0  0  0
    2.2568   -1.9086   -4.8166 N   0  0  0  0  0  0  0  0  0  0  0  0
    2.4049   -3.0904   -4.2861 C   0  0  0  0  0  0  0  0  0  0  0  0
    1.8863   -4.2962   -4.9408 C   0  0  0  0  0  0  0  0  0  0  0  0
    2.1302   -5.5143   -4.4087 N   0  0  0  0  0  0  0  0  0  0  0  0
    1.6356   -6.7249   -5.0115 C   0  0  0  0  0  0  0  0  0  0  0  0
    1.3278   -4.2399   -6.1227 N   0  0  0  0  0  0  0  0  0  0  0  0
    3.2328   -3.2023   -3.1811 N   0  0  0  0  0  0  0  0  0  0  0  0
    4.4076   -2.3553   -3.0995 C   0  0  0  0  0  0  0  0  0  0  0  0
    2.8475   -3.8384   -2.0172 C   0  0  0  0  0  0  0  0  0  0  0  0
    1.6163   -4.2358   -1.7023 C   0  0  0  0  0  0  0  0  0  0  0  0
    5.4534   -1.8846    0.2107 H   0  0  0  0  0  0  0  0  0  0  0  0
    8.2889    1.3384   -1.2681 H   0  0  0  0  0  0  0  0  0  0  0  0
    4.8894    4.1680    2.7909 H   0  0  0  0  0  0  0  0  0  0  0  0
    5.8304    5.5225    0.8692 H   0  0  0  0  0  0  0  0  0  0  0  0
    7.3550    4.7146    1.2671 H   0  0  0  0  0  0  0  0  0  0  0  0
    6.6121    5.8365    2.4374 H   0  0  0  0  0  0  0  0  0  0  0  0
    4.2395    3.0529    5.1454 H   0  0  0  0  0  0  0  0  0  0  0  0
    4.8968    1.4101    5.2812 H   0  0  0  0  0  0  0  0  0  0  0  0
    5.8170    2.6580    4.4277 H   0  0  0  0  0  0  0  0  0  0  0  0
    2.5484    1.2271    4.4848 H   0  0  0  0  0  0  0  0  0  0  0  0
    2.3283    1.5458    1.4469 H   0  0  0  0  0  0  0  0  0  0  0  0
    0.5850    1.8843    0.0471 H   0  0  0  0  0  0  0  0  0  0  0  0
   -0.3768    3.6798   -1.4127 H   0  0  0  0  0  0  0  0  0  0  0  0
   -0.8337    3.1647   -3.0597 H   0  0  0  0  0  0  0  0  0  0  0  0
    0.4108    2.2650   -2.1573 H   0  0  0  0  0  0  0  0  0  0  0  0
   -3.5471    0.9374   -0.5028 H   0  0  0  0  0  0  0  0  0  0  0  0
   -3.7076    0.0848    1.8143 H   0  0  0  0  0  0  0  0  0  0  0  0
   -3.5831   -1.9022    7.5583 H   0  0  0  0  0  0  0  0  0  0  0  0
   -8.3061    0.7588    5.0617 H   0  0  0  0  0  0  0  0  0  0  0  0
   -8.6837   -1.2061    6.6107 H   0  0  0  0  0  0  0  0  0  0  0  0
   -7.5696   -0.3548    7.6912 H   0  0  0  0  0  0  0  0  0  0  0  0
   -9.1515    0.3684    7.2983 H   0  0  0  0  0  0  0  0  0  0  0  0
   -6.4719    3.6298    3.5338 H   0  0  0  0  0  0  0  0  0  0  0  0
   -8.1587    3.0716    3.5306 H   0  0  0  0  0  0  0  0  0  0  0  0
   -7.1524    2.8696    4.9813 H   0  0  0  0  0  0  0  0  0  0  0  0
   -7.1242    2.0986    1.4553 H   0  0  0  0  0  0  0  0  0  0  0  0
   -6.0745   -0.6840    2.2176 H   0  0  0  0  0  0  0  0  0  0  0  0
   -6.0775   -0.2638   -3.3493 H   0  0  0  0  0  0  0  0  0  0  0  0
   -2.2326   -4.3551   -1.1076 H   0  0  0  0  0  0  0  0  0  0  0  0
   -3.3392   -3.6024   -3.7366 H   0  0  0  0  0  0  0  0  0  0  0  0
   -2.4244   -5.1053   -3.4478 H   0  0  0  0  0  0  0  0  0  0  0  0
   -1.6044   -3.5267   -3.3712 H   0  0  0  0  0  0  0  0  0  0  0  0
   -4.5938   -4.1583    2.2260 H   0  0  0  0  0  0  0  0  0  0  0  0
   -2.9677   -4.4701    2.8778 H   0  0  0  0  0  0  0  0  0  0  0  0
   -3.6590   -2.8305    2.9345 H   0  0  0  0  0  0  0  0  0  0  0  0
   -1.1058   -3.6434    1.8273 H   0  0  0  0  0  0  0  0  0  0  0  0
   -1.6083   -1.8991   -0.6580 H   0  0  0  0  0  0  0  0  0  0  0  0
    3.5202   -1.1862    1.4387 H   0  0  0  0  0  0  0  0  0  0  0  0
    3.1224    0.9617   -4.1027 H   0  0  0  0  0  0  0  0  0  0  0  0
    4.9565    2.3069   -3.2869 H   0  0  0  0  0  0  0  0  0  0  0  0
    4.6845    1.5925   -1.6795 H   0  0  0  0  0  0  0  0  0  0  0  0
    5.3442    0.5975   -2.9845 H   0  0  0  0  0  0  0  0  0  0  0  0
   -1.0121   -0.0757   -5.1670 H   0  0  0  0  0  0  0  0  0  0  0  0
   -1.3304   -0.2314   -3.4199 H   0  0  0  0  0  0  0  0  0  0  0  0
   -0.5023   -1.5327   -4.2788 H   0  0  0  0  0  0  0  0  0  0  0  0
    1.3805    2.0671   -4.5767 H   0  0  0  0  0  0  0  0  0  0  0  0
    1.5633    1.4530   -6.9164 H   0  0  0  0  0  0  0  0  0  0  0  0
    0.1898   -3.4249   -8.6096 H   0  0  0  0  0  0  0  0  0  0  0  0
    2.4210   -5.5580   -3.4440 H   0  0  0  0  0  0  0  0  0  0  0  0
    0.7163   -7.0683   -4.5277 H   0  0  0  0  0  0  0  0  0  0  0  0
    2.3915   -7.5064   -4.9313 H   0  0  0  0  0  0  0  0  0  0  0  0
    1.4284   -6.5158   -6.0583 H   0  0  0  0  0  0  0  0  0  0  0  0
    4.5435   -1.8584   -4.0568 H   0  0  0  0  0  0  0  0  0  0  0  0
    5.2831   -2.9747   -2.8867 H   0  0  0  0  0  0  0  0  0  0  0  0
    4.3105   -1.6027   -2.3158 H   0  0  0  0  0  0  0  0  0  0  0  0
    3.6661   -3.9778   -1.3228 H   0  0  0  0  0  0  0  0  0  0  0  0
    0.7716   -4.0556   -2.3444 H   0  0  0  0  0  0  0  0  0  0  0  0
    1.4235   -4.7332   -0.7704 H   0  0  0  0  0  0  0  0  0  0  0  0
  1  2  1  0  0  0  0
  2  3  1  0  0  0  0
  3  4  2  0  0  0  0
  4  5  1  0  0  0  0
  5  6  1  0  0  0  0
  6  7  2  0  0  0  0
  7  8  1  0  0  0  0
  8  9  1  0  0  0  0
  9 10  1  0  0  0  0
  8 11  2  0  0  0  0
  7 12  1  0  0  0  0
 12 13  1  0  0  0  0
 12 14  1  0  0  0  0
 14 15  2  0  0  0  0
 15 16  1  0  0  0  0
 16 17  1  0  0  0  0
 17 18  1  0  0  0  0
 18 19  2  0  0  0  0
 19 20  1  0  0  0  0
 20 21  1  0  0  0  0
 21 22  2  0  0  0  0
 22 23  1  0  0  0  0
 23 24  1  0  0  0  0
 22 25  1  0  0  0  0
 25 26  2  0  0  0  0
 18 27  1  0  0  0  0
 27 28  1  0  0  0  0
 28 29  1  0  0  0  0
 29 30  2  0  0  0  0
 30 31  1  0  0  0  0
 31 32  1  0  0  0  0
 32 33  2  0  0  0  0
 33 34  1  0  0  0  0
 34 35  1  0  0  0  0
 35 36  1  0  0  0  0
 34 37  2  0  0  0  0
 33 38  1  0  0  0  0
 38 39  1  0  0  0  0
 38 40  1  0  0  0  0
 40 41  2  0  0  0  0
 41 42  1  0  0  0  0
 42 43  1  0  0  0  0
 43 44  1  0  0  0  0
 44 45  2  0  0  0  0
 45 46  1  0  0  0  0
 46 47  1  0  0  0  0
 47 48  2  0  0  0  0
 48 49  1  0  0  0  0
 49 50  1  0  0  0  0
 50 51  1  0  0  0  0
 49 52  2  0  0  0  0
 48 53  1  0  0  0  0
 53 54  1  0  0  0  0
 53 55  1  0  0  0  0
 55 56  2  0  0  0  0
 56 57  1  0  0  0  0
 57 58  1  0  0  0  0
 58 59  1  0  0  0  0
 59 60  2  0  0  0  0
 60 61  1  0  0  0  0
 61 62  1  0  0  0  0
 62 63  2  0  0  0  0
 63 64  1  0  0  0  0
 64 65  1  0  0  0  0
 65 66  1  0  0  0  0
 64 67  2  0  0  0  0
 63 68  1  0  0  0  0
 68 69  1  0  0  0  0
 68 70  1  0  0  0  0
 70 71  2  0  0  0  0
 71 72  1  0  0  0  0
 72 73  1  0  0  0  0
 73 74  1  0  0  0  0
 74 75  2  0  0  0  0
 75 76  1  0  0  0  0
 76 77  1  0  0  0  0
 77 78  2  0  0  0  0
 78 79  1  0  0  0  0
 79 80  1  0  0  0  0
 80 81  1  0  0  0  0
 79 82  2  0  0  0  0
 78 83  1  0  0  0  0
 83 84  1  0  0  0  0
 83 85  1  0  0  0  0
 85 86  2  0  0  0  0
  5  1  2  0  0  0  0
 20 16  2  0  0  0  0
 31 27  2  0  0  0  0
 46 42  2  0  0  0  0
 61 57  2  0  0  0  0
 76 72  2  0  0  0  0
 11  4  1  0  0  0  0
 26 19  1  0  0  0  0
 37 30  1  0  0  0  0
 52 45  1  0  0  0  0
 67 60  1  0  0  0  0
 82 75  1  0  0  0  0
  1 87  1  0  0  0  0
  3 88  1  0  0  0  0
  9 89  1  0  0  0  0
 10 90  1  0  0  0  0
 10 91  1  0  0  0  0
 10 92  1  0  0  0  0
 13 93  1  0  0  0  0
 13 94  1  0  0  0  0
 13 95  1  0  0  0  0
 14 96  1  0  0  0  0
 15 97  1  0  0  0  0
 21 98  1  0  0  0  0
 24 99  1  0  0  0  0
 24100  1  0  0  0  0
 24101  1  0  0  0  0
 25102  1  0  0  0  0
 26103  1  0  0  0  0
 29104  1  0  0  0  0
 35105  1  0  0  0  0
 36106  1  0  0  0  0
 36107  1  0  0  0  0
 36108  1  0  0  0  0
 39109  1  0  0  0  0
 39110  1  0  0  0  0
 39111  1  0  0  0  0
 40112  1  0  0  0  0
 41113  1  0  0  0  0
 44114  1  0  0  0  0
 50115  1  0  0  0  0
 51116  1  0  0  0  0
 51117  1  0  0  0  0
 51118  1  0  0  0  0
 54119  1  0  0  0  0
 54120  1  0  0  0  0
 54121  1  0  0  0  0
 55122  1  0  0  0  0
 56123  1  0  0  0  0
 59124  1  0  0  0  0
 65125  1  0  0  0  0
 66126  1  0  0  0  0
 66127  1  0  0  0  0
 66128  1  0  0  0  0
 69129  1  0  0  0  0
 69130  1  0  0  0  0
 69131  1  0  0  0  0
 70132  1  0  0  0  0
 71133  1  0  0  0  0
 74134  1  0  0  0  0
 80135  1  0  0  0  0
 81136  1  0  0  0  0
 81137  1  0  0  0  0
 81138  1  0  0  0  0
 84139  1  0  0  0  0
 84140  1  0  0  0  0
 84141  1  0  0  0  0
 85142  1  0  0  0  0
 86143  1  0  0  0  0
 86144  1  0  0  0  0
M  END
