
  xtb     03022205373D
 energy: -232.493866506222 gnorm: 0.000350494949 xtb: 6.4.1 (unknown)
164175  0     0  0            999 V2000
    1.9854    5.8031    4.4226 C   0  0  0  0  0  0  0  0  0  0  0  0
    1.5425    4.2837    5.0657 S   0  0  0  0  0  0  0  0  0  0  0  0
    2.8109    4.3069    6.2533 C   0  0  0  0  0  0  0  0  0  0  0  0
    3.5484    5.4997    6.1234 C   0  0  0  0  0  0  0  0  0  0  0  0
    3.0738    6.3449    5.0718 C   0  0  0  0  0  0  0  0  0  0  0  0
    3.7085    7.5792    4.7990 C   0  0  0  0  0  0  0  0  0  0  0  0
    4.7853    7.9824    5.5370 C   0  0  0  0  0  0  0  0  0  0  0  0
    5.5074    9.2989    5.3012 C   0  0  0  0  0  0  0  0  0  0  0  0
    6.9766    9.0137    4.9592 C   0  0  0  0  0  0  0  0  0  0  0  0
    5.4235   10.1509    6.5756 C   0  0  0  0  0  0  0  0  0  0  0  0
    4.8989   10.1037    4.1495 C   0  0  0  0  0  0  0  0  0  0  0  0
    5.2496    7.1307    6.5744 C   0  0  0  0  0  0  0  0  0  0  0  0
    4.6637    5.9327    6.8631 C   0  0  0  0  0  0  0  0  0  0  0  0
    2.9884    3.3663    7.2905 C   0  0  0  0  0  0  0  0  0  0  0  0
    2.4728    2.1214    7.5329 C   0  0  0  0  0  0  0  0  0  0  0  0
    1.7556    1.2162    6.7319 C   0  0  0  0  0  0  0  0  0  0  0  0
    1.6470    1.3201    5.0074 S   0  0  0  0  0  0  0  0  0  0  0  0
    0.7525   -0.1691    4.8400 C   0  0  0  0  0  0  0  0  0  0  0  0
    0.5552   -0.7413    6.1216 C   0  0  0  0  0  0  0  0  0  0  0  0
    1.1246    0.0310    7.1739 C   0  0  0  0  0  0  0  0  0  0  0  0
    1.0011   -0.3892    8.5097 C   0  0  0  0  0  0  0  0  0  0  0  0
    0.3244   -1.5500    8.7977 C   0  0  0  0  0  0  0  0  0  0  0  0
    0.1419   -2.0643   10.0451 O   0  0  0  0  0  0  0  0  0  0  0  0
    0.6931   -1.3780   11.1408 C   0  0  0  0  0  0  0  0  0  0  0  0
   -0.2613   -2.3022    7.7549 C   0  0  0  0  0  0  0  0  0  0  0  0
   -0.1526   -1.9097    6.4523 C   0  0  0  0  0  0  0  0  0  0  0  0
    0.3839   -0.6307    3.5749 C   0  0  0  0  0  0  0  0  0  0  0  0
   -0.1392   -2.2817    3.3268 S   0  0  0  0  0  0  0  0  0  0  0  0
   -0.2971   -2.0922    1.6043 C   0  0  0  0  0  0  0  0  0  0  0  0
    0.0508   -0.7728    1.2302 C   0  0  0  0  0  0  0  0  0  0  0  0
    0.4125    0.0529    2.3273 C   0  0  0  0  0  0  0  0  0  0  0  0
    0.7019    1.4019    2.0867 C   0  0  0  0  0  0  0  0  0  0  0  0
    0.7047    1.9238    0.8108 C   0  0  0  0  0  0  0  0  0  0  0  0
    1.0189    3.4008    0.6268 C   0  0  0  0  0  0  0  0  0  0  0  0
   -0.0324    4.2277    1.3810 C   0  0  0  0  0  0  0  0  0  0  0  0
    2.4141    3.6947    1.1964 C   0  0  0  0  0  0  0  0  0  0  0  0
    1.0018    3.8309   -0.8427 C   0  0  0  0  0  0  0  0  0  0  0  0
    0.4059    1.0705   -0.2659 C   0  0  0  0  0  0  0  0  0  0  0  0
    0.0714   -0.2439   -0.0661 C   0  0  0  0  0  0  0  0  0  0  0  0
   -0.7191   -3.1088    0.7602 C   0  0  0  0  0  0  0  0  0  0  0  0
   -0.9842   -4.4159    1.1069 C   0  0  0  0  0  0  0  0  0  0  0  0
   -1.3504   -5.3718    0.1638 C   0  0  0  0  0  0  0  0  0  0  0  0
   -1.6371   -4.9000   -1.4886 S   0  0  0  0  0  0  0  0  0  0  0  0
   -1.7727   -6.5367   -2.0500 C   0  0  0  0  0  0  0  0  0  0  0  0
   -1.6656   -7.4297   -0.9528 C   0  0  0  0  0  0  0  0  0  0  0  0
   -1.4358   -6.7794    0.2883 C   0  0  0  0  0  0  0  0  0  0  0  0
   -1.2811   -7.5278    1.4630 C   0  0  0  0  0  0  0  0  0  0  0  0
   -1.3547   -8.9012    1.4353 C   0  0  0  0  0  0  0  0  0  0  0  0
   -1.1990   -9.7610    2.6789 C   0  0  0  0  0  0  0  0  0  0  0  0
   -2.4841  -10.5743    2.8892 C   0  0  0  0  0  0  0  0  0  0  0  0
   -0.9483   -8.9312    3.9410 C   0  0  0  0  0  0  0  0  0  0  0  0
   -0.0070  -10.7096    2.4872 C   0  0  0  0  0  0  0  0  0  0  0  0
   -1.5842   -9.5333    0.1951 C   0  0  0  0  0  0  0  0  0  0  0  0
   -1.7322   -8.8297   -0.9701 C   0  0  0  0  0  0  0  0  0  0  0  0
   -2.0507   -6.8711   -3.3798 C   0  0  0  0  0  0  0  0  0  0  0  0
   -2.1364   -6.0565   -4.4861 C   0  0  0  0  0  0  0  0  0  0  0  0
   -1.7040   -4.7299   -4.6572 C   0  0  0  0  0  0  0  0  0  0  0  0
   -2.6018   -3.7009   -5.7460 S   0  0  0  0  0  0  0  0  0  0  0  0
   -1.6714   -2.2864   -5.3609 C   0  0  0  0  0  0  0  0  0  0  0  0
   -0.6303   -2.6370   -4.4630 C   0  0  0  0  0  0  0  0  0  0  0  0
   -0.6175   -4.0143   -4.1163 C   0  0  0  0  0  0  0  0  0  0  0  0
    0.4463   -4.5367   -3.3635 C   0  0  0  0  0  0  0  0  0  0  0  0
    1.4268   -3.7144   -2.8518 C   0  0  0  0  0  0  0  0  0  0  0  0
    2.5769   -4.3177   -2.0605 C   0  0  0  0  0  0  0  0  0  0  0  0
    3.5029   -3.2560   -1.4603 C   0  0  0  0  0  0  0  0  0  0  0  0
    3.3989   -5.2026   -3.0091 C   0  0  0  0  0  0  0  0  0  0  0  0
    2.0316   -5.1678   -0.9054 C   0  0  0  0  0  0  0  0  0  0  0  0
    1.3402   -2.3344   -3.1167 C   0  0  0  0  0  0  0  0  0  0  0  0
    0.3614   -1.8084   -3.9202 C   0  0  0  0  0  0  0  0  0  0  0  0
   -1.9418   -0.9723   -5.7640 C   0  0  0  0  0  0  0  0  0  0  0  0
   -2.8108   -0.3951   -6.6565 C   0  0  0  0  0  0  0  0  0  0  0  0
   -3.6579   -0.8913   -7.6593 C   0  0  0  0  0  0  0  0  0  0  0  0
   -3.7073   -2.5257   -8.2289 S   0  0  0  0  0  0  0  0  0  0  0  0
   -4.8828   -2.1874   -9.4567 C   0  0  0  0  0  0  0  0  0  0  0  0
   -5.2122   -0.8268   -9.4559 C   0  0  0  0  0  0  0  0  0  0  0  0
   -4.5322   -0.0939   -8.4383 C   0  0  0  0  0  0  0  0  0  0  0  0
   -4.7698    1.2836   -8.2906 C   0  0  0  0  0  0  0  0  0  0  0  0
   -5.6223    1.9519   -9.1324 C   0  0  0  0  0  0  0  0  0  0  0  0
   -5.9087    3.4394   -9.0096 C   0  0  0  0  0  0  0  0  0  0  0  0
   -5.4688    4.1431  -10.3015 C   0  0  0  0  0  0  0  0  0  0  0  0
   -7.4149    3.6420   -8.7916 C   0  0  0  0  0  0  0  0  0  0  0  0
   -5.1676    4.0898   -7.8380 C   0  0  0  0  0  0  0  0  0  0  0  0
   -6.2477    1.2211  -10.1699 C   0  0  0  0  0  0  0  0  0  0  0  0
   -6.0570   -0.1190  -10.3352 C   0  0  0  0  0  0  0  0  0  0  0  0
   -5.3320   -3.2964  -10.2415 C   0  0  0  0  0  0  0  0  0  0  0  0
   -6.4447   -3.3848  -10.9739 C   0  0  0  0  0  0  0  0  0  0  0  0
    1.4268    6.2148    3.6064 H   0  0  0  0  0  0  0  0  0  0  0  0
    3.3067    8.1743    3.9956 H   0  0  0  0  0  0  0  0  0  0  0  0
    7.5021    9.9458    4.7617 H   0  0  0  0  0  0  0  0  0  0  0  0
    7.0405    8.3863    4.0724 H   0  0  0  0  0  0  0  0  0  0  0  0
    7.4845    8.5045    5.7735 H   0  0  0  0  0  0  0  0  0  0  0  0
    5.8990    9.6560    7.4179 H   0  0  0  0  0  0  0  0  0  0  0  0
    5.9186   11.1072    6.4196 H   0  0  0  0  0  0  0  0  0  0  0  0
    4.3832   10.3387    6.8338 H   0  0  0  0  0  0  0  0  0  0  0  0
    3.8618   10.3582    4.3553 H   0  0  0  0  0  0  0  0  0  0  0  0
    5.4536   11.0312    4.0220 H   0  0  0  0  0  0  0  0  0  0  0  0
    4.9516    9.5496    3.2152 H   0  0  0  0  0  0  0  0  0  0  0  0
    6.1023    7.4381    7.1605 H   0  0  0  0  0  0  0  0  0  0  0  0
    5.0598    5.3170    7.6570 H   0  0  0  0  0  0  0  0  0  0  0  0
    3.6351    3.7424    8.0751 H   0  0  0  0  0  0  0  0  0  0  0  0
    2.6869    1.7343    8.5225 H   0  0  0  0  0  0  0  0  0  0  0  0
    1.4335    0.2147    9.2903 H   0  0  0  0  0  0  0  0  0  0  0  0
    1.7831   -1.3066   11.0627 H   0  0  0  0  0  0  0  0  0  0  0  0
    0.2697   -0.3730   11.2402 H   0  0  0  0  0  0  0  0  0  0  0  0
    0.4332   -1.9659   12.0196 H   0  0  0  0  0  0  0  0  0  0  0  0
   -0.8021   -3.1948    8.0251 H   0  0  0  0  0  0  0  0  0  0  0  0
   -0.6244   -2.4966    5.6825 H   0  0  0  0  0  0  0  0  0  0  0  0
    0.9058    2.0516    2.9189 H   0  0  0  0  0  0  0  0  0  0  0  0
    0.1458    5.2897    1.2244 H   0  0  0  0  0  0  0  0  0  0  0  0
   -1.0304    3.9897    1.0182 H   0  0  0  0  0  0  0  0  0  0  0  0
    0.0001    4.0281    2.4486 H   0  0  0  0  0  0  0  0  0  0  0  0
    3.1654    3.1055    0.6747 H   0  0  0  0  0  0  0  0  0  0  0  0
    2.6553    4.7484    1.0722 H   0  0  0  0  0  0  0  0  0  0  0  0
    2.4694    3.4566    2.2546 H   0  0  0  0  0  0  0  0  0  0  0  0
    1.2419    4.8901   -0.9123 H   0  0  0  0  0  0  0  0  0  0  0  0
    0.0191    3.6808   -1.2841 H   0  0  0  0  0  0  0  0  0  0  0  0
    1.7420    3.2822   -1.4206 H   0  0  0  0  0  0  0  0  0  0  0  0
    0.4180    1.4462   -1.2755 H   0  0  0  0  0  0  0  0  0  0  0  0
   -0.1769   -0.8725   -0.9084 H   0  0  0  0  0  0  0  0  0  0  0  0
   -0.8189   -2.8436   -0.2850 H   0  0  0  0  0  0  0  0  0  0  0  0
   -0.8533   -4.7264    2.1344 H   0  0  0  0  0  0  0  0  0  0  0  0
   -1.1076   -6.9945    2.3821 H   0  0  0  0  0  0  0  0  0  0  0  0
   -3.3358   -9.9071    3.0050 H   0  0  0  0  0  0  0  0  0  0  0  0
   -2.6802  -11.2340    2.0485 H   0  0  0  0  0  0  0  0  0  0  0  0
   -2.3983  -11.1836    3.7866 H   0  0  0  0  0  0  0  0  0  0  0  0
   -0.0331   -8.3502    3.8524 H   0  0  0  0  0  0  0  0  0  0  0  0
   -1.7801   -8.2594    4.1399 H   0  0  0  0  0  0  0  0  0  0  0  0
   -0.8424   -9.5958    4.7961 H   0  0  0  0  0  0  0  0  0  0  0  0
    0.1318  -11.3197    3.3773 H   0  0  0  0  0  0  0  0  0  0  0  0
    0.9030  -10.1386    2.3146 H   0  0  0  0  0  0  0  0  0  0  0  0
   -0.1579  -11.3740    1.6410 H   0  0  0  0  0  0  0  0  0  0  0  0
   -1.6451  -10.6102    0.1540 H   0  0  0  0  0  0  0  0  0  0  0  0
   -1.9017   -9.3525   -1.8996 H   0  0  0  0  0  0  0  0  0  0  0  0
   -2.3276   -7.9070   -3.5342 H   0  0  0  0  0  0  0  0  0  0  0  0
   -2.6680   -6.4702   -5.3358 H   0  0  0  0  0  0  0  0  0  0  0  0
    0.4893   -5.6052   -3.2223 H   0  0  0  0  0  0  0  0  0  0  0  0
    4.2810   -3.7444   -0.8772 H   0  0  0  0  0  0  0  0  0  0  0  0
    3.9885   -2.6693   -2.2367 H   0  0  0  0  0  0  0  0  0  0  0  0
    2.9542   -2.5905   -0.7968 H   0  0  0  0  0  0  0  0  0  0  0  0
    2.7919   -6.0060   -3.4182 H   0  0  0  0  0  0  0  0  0  0  0  0
    4.2390   -5.6440   -2.4771 H   0  0  0  0  0  0  0  0  0  0  0  0
    3.7859   -4.6118   -3.8370 H   0  0  0  0  0  0  0  0  0  0  0  0
    1.4436   -4.5511   -0.2294 H   0  0  0  0  0  0  0  0  0  0  0  0
    2.8552   -5.6032   -0.3435 H   0  0  0  0  0  0  0  0  0  0  0  0
    1.4043   -5.9801   -1.2619 H   0  0  0  0  0  0  0  0  0  0  0  0
    2.0747   -1.6615   -2.7060 H   0  0  0  0  0  0  0  0  0  0  0  0
    0.3679   -0.7510   -4.1395 H   0  0  0  0  0  0  0  0  0  0  0  0
   -1.3448   -0.2513   -5.2172 H   0  0  0  0  0  0  0  0  0  0  0  0
   -2.8238    0.6872   -6.6067 H   0  0  0  0  0  0  0  0  0  0  0  0
   -4.2630    1.8073   -7.4981 H   0  0  0  0  0  0  0  0  0  0  0  0
   -6.0148    3.7711  -11.1639 H   0  0  0  0  0  0  0  0  0  0  0  0
   -4.4068    3.9809  -10.4747 H   0  0  0  0  0  0  0  0  0  0  0  0
   -5.6464    5.2136  -10.2229 H   0  0  0  0  0  0  0  0  0  0  0  0
   -7.9938    3.2560   -9.6260 H   0  0  0  0  0  0  0  0  0  0  0  0
   -7.6381    4.7015   -8.6845 H   0  0  0  0  0  0  0  0  0  0  0  0
   -7.7358    3.1283   -7.8876 H   0  0  0  0  0  0  0  0  0  0  0  0
   -4.0900    4.0067   -7.9608 H   0  0  0  0  0  0  0  0  0  0  0  0
   -5.4562    3.6372   -6.8920 H   0  0  0  0  0  0  0  0  0  0  0  0
   -5.4184    5.1477   -7.7940 H   0  0  0  0  0  0  0  0  0  0  0  0
   -6.8958    1.7373  -10.8617 H   0  0  0  0  0  0  0  0  0  0  0  0
   -6.5314   -0.6331  -11.1546 H   0  0  0  0  0  0  0  0  0  0  0  0
   -4.6880   -4.1661  -10.1746 H   0  0  0  0  0  0  0  0  0  0  0  0
   -6.6746   -4.2862  -11.5148 H   0  0  0  0  0  0  0  0  0  0  0  0
   -7.1677   -2.5927  -11.0391 H   0  0  0  0  0  0  0  0  0  0  0  0
  1  2  1  0  0  0  0
  2  3  1  0  0  0  0
  3  4  2  0  0  0  0
  4  5  1  0  0  0  0
  5  6  1  0  0  0  0
  6  7  2  0  0  0  0
  7  8  1  0  0  0  0
  8  9  1  0  0  0  0
  8 10  1  0  0  0  0
  8 11  1  0  0  0  0
  7 12  1  0  0  0  0
 12 13  2  0  0  0  0
  3 14  1  0  0  0  0
 14 15  2  0  0  0  0
 15 16  1  0  0  0  0
 16 17  1  0  0  0  0
 17 18  1  0  0  0  0
 18 19  2  0  0  0  0
 19 20  1  0  0  0  0
 20 21  1  0  0  0  0
 21 22  2  0  0  0  0
 22 23  1  0  0  0  0
 23 24  1  0  0  0  0
 22 25  1  0  0  0  0
 25 26  2  0  0  0  0
 18 27  1  0  0  0  0
 27 28  1  0  0  0  0
 28 29  1  0  0  0  0
 29 30  2  0  0  0  0
 30 31  1  0  0  0  0
 31 32  1  0  0  0  0
 32 33  2  0  0  0  0
 33 34  1  0  0  0  0
 34 35  1  0  0  0  0
 34 36  1  0  0  0  0
 34 37  1  0  0  0  0
 33 38  1  0  0  0  0
 38 39  2  0  0  0  0
 29 40  1  0  0  0  0
 40 41  2  0  0  0  0
 41 42  1  0  0  0  0
 42 43  1  0  0  0  0
 43 44  1  0  0  0  0
 44 45  2  0  0  0  0
 45 46  1  0  0  0  0
 46 47  1  0  0  0  0
 47 48  2  0  0  0  0
 48 49  1  0  0  0  0
 49 50  1  0  0  0  0
 49 51  1  0  0  0  0
 49 52  1  0  0  0  0
 48 53  1  0  0  0  0
 53 54  2  0  0  0  0
 44 55  1  0  0  0  0
 55 56  2  0  0  0  0
 56 57  1  0  0  0  0
 57 58  1  0  0  0  0
 58 59  1  0  0  0  0
 59 60  2  0  0  0  0
 60 61  1  0  0  0  0
 61 62  1  0  0  0  0
 62 63  2  0  0  0  0
 63 64  1  0  0  0  0
 64 65  1  0  0  0  0
 64 66  1  0  0  0  0
 64 67  1  0  0  0  0
 63 68  1  0  0  0  0
 68 69  2  0  0  0  0
 59 70  1  0  0  0  0
 70 71  2  0  0  0  0
 71 72  1  0  0  0  0
 72 73  1  0  0  0  0
 73 74  1  0  0  0  0
 74 75  2  0  0  0  0
 75 76  1  0  0  0  0
 76 77  1  0  0  0  0
 77 78  2  0  0  0  0
 78 79  1  0  0  0  0
 79 80  1  0  0  0  0
 79 81  1  0  0  0  0
 79 82  1  0  0  0  0
 78 83  1  0  0  0  0
 83 84  2  0  0  0  0
 74 85  1  0  0  0  0
 85 86  2  0  0  0  0
  5  1  2  0  0  0  0
 20 16  2  0  0  0  0
 31 27  2  0  0  0  0
 46 42  2  0  0  0  0
 61 57  2  0  0  0  0
 76 72  2  0  0  0  0
 13  4  1  0  0  0  0
 26 19  1  0  0  0  0
 39 30  1  0  0  0  0
 54 45  1  0  0  0  0
 69 60  1  0  0  0  0
 84 75  1  0  0  0  0
  1 87  1  0  0  0  0
  6 88  1  0  0  0  0
  9 89  1  0  0  0  0
  9 90  1  0  0  0  0
  9 91  1  0  0  0  0
 10 92  1  0  0  0  0
 10 93  1  0  0  0  0
 10 94  1  0  0  0  0
 11 95  1  0  0  0  0
 11 96  1  0  0  0  0
 11 97  1  0  0  0  0
 12 98  1  0  0  0  0
 13 99  1  0  0  0  0
 14100  1  0  0  0  0
 15101  1  0  0  0  0
 21102  1  0  0  0  0
 24103  1  0  0  0  0
 24104  1  0  0  0  0
 24105  1  0  0  0  0
 25106  1  0  0  0  0
 26107  1  0  0  0  0
 32108  1  0  0  0  0
 35109  1  0  0  0  0
 35110  1  0  0  0  0
 35111  1  0  0  0  0
 36112  1  0  0  0  0
 36113  1  0  0  0  0
 36114  1  0  0  0  0
 37115  1  0  0  0  0
 37116  1  0  0  0  0
 37117  1  0  0  0  0
 38118  1  0  0  0  0
 39119  1  0  0  0  0
 40120  1  0  0  0  0
 41121  1  0  0  0  0
 47122  1  0  0  0  0
 50123  1  0  0  0  0
 50124  1  0  0  0  0
 50125  1  0  0  0  0
 51126  1  0  0  0  0
 51127  1  0  0  0  0
 51128  1  0  0  0  0
 52129  1  0  0  0  0
 52130  1  0  0  0  0
 52131  1  0  0  0  0
 53132  1  0  0  0  0
 54133  1  0  0  0  0
 55134  1  0  0  0  0
 56135  1  0  0  0  0
 62136  1  0  0  0  0
 65137  1  0  0  0  0
 65138  1  0  0  0  0
 65139  1  0  0  0  0
 66140  1  0  0  0  0
 66141  1  0  0  0  0
 66142  1  0  0  0  0
 67143  1  0  0  0  0
 67144  1  0  0  0  0
 67145  1  0  0  0  0
 68146  1  0  0  0  0
 69147  1  0  0  0  0
 70148  1  0  0  0  0
 71149  1  0  0  0  0
 77150  1  0  0  0  0
 80151  1  0  0  0  0
 80152  1  0  0  0  0
 80153  1  0  0  0  0
 81154  1  0  0  0  0
 81155  1  0  0  0  0
 81156  1  0  0  0  0
 82157  1  0  0  0  0
 82158  1  0  0  0  0
 82159  1  0  0  0  0
 83160  1  0  0  0  0
 84161  1  0  0  0  0
 85162  1  0  0  0  0
 86163  1  0  0  0  0
 86164  1  0  0  0  0
M  END
