99

C          9.14380        4.25190        3.17640
S          7.57850        4.84000        2.75200
C          6.98890        3.23210        2.39910
C          7.98620        2.29420        2.61200
C          8.06020        0.87690        2.48660
C          9.25490        0.32950        2.79810
C          9.61520       -1.11700        2.76340
C          9.99050       -1.63450        4.15110
Se        10.55260        1.62650        3.34080
C          9.20320        2.90090        3.05310
C          5.65760        3.05730        1.96140
S          4.99980        1.47730        1.59000
C          3.43700        2.13090        1.15860
C          3.43290        3.51300        1.30240
C          2.44750        4.52000        1.08940
C          2.85280        5.78330        1.34430
C          2.04420        7.02860        1.20380
C          2.67410        7.99180        0.19930
Se         4.67030        5.87530        1.92800
C          4.68420        4.01270        1.75160
C          2.42380        1.25450        0.73180
S          0.82770        1.81160        0.27360
C          0.27470        0.19560       -0.10530
C          1.29000       -0.72880        0.11570
C          1.37980       -2.14420       -0.02670
C          2.57480       -2.68020        0.30420
C          2.95660       -4.12130        0.26270
C          3.29590       -4.64820        1.65610
Se         3.83620       -1.37010        0.88890
C          2.48110       -0.11900        0.58560
C         -1.04470        0.01930       -0.55700
S         -1.68940       -1.53500       -1.03770
C         -3.26060       -0.86440       -1.43670
C         -3.28290        0.49900       -1.16580
C         -4.31030        1.49110       -1.17030
C         -3.92300        2.72550       -0.78460
C         -4.77530        3.94620       -0.69320
C         -4.82480        4.48980        0.73340
Se        -2.07470        2.80590       -0.30760
C         -2.03170        0.97780       -0.69660
C         -4.26710       -1.72640       -1.92420
S         -4.27680       -3.39000       -1.42180
C         -5.71830       -3.75500       -2.31240
C         -6.16610       -2.62060       -3.00660
C         -5.32730       -1.47770       -2.80910
C         -5.56720       -0.30560       -3.54170
C         -6.65590       -0.22510       -4.38070
O         -6.81200        0.95560       -5.04400
C         -7.88560        1.09830       -5.94150
C         -7.52680       -1.32960       -4.51600
C         -7.27870       -2.50160       -3.85870
C         -6.22140       -5.07340       -2.24970
S         -7.68280       -5.61140       -3.05540
C         -7.51630       -7.22100       -2.46730
C         -6.40330       -7.36490       -1.68970
C         -5.81900       -8.46500       -0.98370
C         -4.68140       -8.17930       -0.32110
C         -3.85390       -9.11400        0.49580
C         -2.42400       -9.20280       -0.03360
Se        -4.14760       -6.34720       -0.51000
C         -5.67520       -6.14310       -1.56790
H          9.90370        4.94180        3.48310
H          7.22300        0.28140        2.16320
H         10.46320       -1.26440        2.08730
H          8.76550       -1.68000        2.37100
H         10.25700       -2.68750        4.10570
H         10.84230       -1.07550        4.53890
H          9.15650       -1.51290        4.83840
H          1.45120        4.28870        0.75170
H          1.97050        7.52580        2.17610
H          1.03570        6.75810        0.88330
H          2.74160        7.52520       -0.78080
H          3.68000        8.26120        0.52350
H          2.08060        8.89880        0.11580
H          0.55300       -2.73950       -0.37530
H          2.12960       -4.69330       -0.16330
H          3.82850       -4.24690       -0.38680
H          3.59190       -5.69320        1.60740
H          2.43520       -4.55760        2.31440
H          4.11780       -4.07140        2.08140
H         -5.32810        1.26140       -1.43430
H         -5.78230        3.69940       -1.03660
H         -4.37150        4.71910       -1.35480
H         -3.81730        4.73150        1.07380
H         -5.24650        3.74760        1.40740
H         -5.43270        5.39000        0.77840
H         -4.89110        0.53030       -3.48250
H         -7.83200        0.36880       -6.75590
H         -8.85200        1.00930       -5.43430
H         -7.78980        2.10200       -6.35330
H         -8.38800       -1.26530       -5.16130
H         -7.93870       -3.34160       -4.00210
H         -8.25050       -7.95370       -2.73520
H         -6.26820       -9.44420       -0.99010
H         -3.82870       -8.76150        1.53170
H         -4.32040      -10.10170        0.48540
H         -1.96100       -8.21540       -0.02000
H         -2.42040       -9.57050       -1.05730
H         -1.83010       -9.87380        0.58200
