169

C          4.39260        2.42810        2.96020
C          3.06550        2.03930        2.83290
N          2.13210        1.77700        3.80670
C          2.35640        1.98490        5.21350
C          3.06020        0.80550        5.87940
C          0.95450        1.41140        3.19560
C          1.12370        1.46860        1.78930
C          2.48200        1.86180        1.55740
C          3.23350        2.07370        0.40920
C          4.55300        2.45490        0.54390
C          5.12150        2.62980        1.80410
C          0.06830        1.19070        0.93270
C         -1.15140        0.85390        1.47970
C         -1.31220        0.78760        2.85940
C         -0.27640        1.05170        3.74610
C         -0.53750        0.88770        5.19140
C         -0.23830       -0.23430        5.83760
C         -0.53070       -0.51290        7.24580
C         -1.13600       -1.70880        7.64030
N         -1.64530       -2.72330        6.85040
C         -2.31930       -2.45720        5.60200
C         -3.55540       -1.58220        5.81670
C         -2.03420       -3.75100        7.68870
C         -1.85530       -3.36080        9.03580
C         -1.26580       -2.05030        9.00320
C         -0.85130       -1.16620        9.99060
C         -0.31400        0.04520        9.60280
C         -0.15010        0.35970        8.25760
C         -2.23070       -4.20220       10.07380
C         -2.77890       -5.42900        9.75440
C         -2.87300       -5.84300        8.43170
C         -2.45450       -5.04740        7.36560
C         -2.35990       -5.67980        6.04890
C         -1.35610       -5.56110        5.16890
C         -0.14950       -4.74610        5.36090
C          0.44180       -3.91060        4.39870
N          0.09770       -3.61800        3.08810
C         -1.17260       -3.94230        2.48180
C         -1.95010       -2.71520        2.00670
C          1.08370       -2.81360        2.53490
C          2.03620       -2.51590        3.53600
C          1.63500       -3.21830        4.71730
C          2.22710       -3.30670        5.96900
C          1.64720       -4.13440        6.90560
C          0.49840       -4.84430        6.59110
C          3.14420       -1.71860        3.28650
C          3.30720       -1.20970        2.01680
C          2.39680       -1.52240        1.02000
C          1.28230       -2.33800        1.22510
C          0.46730       -2.71760        0.08120
C          0.28140       -1.92820       -0.99320
C         -0.44350       -2.21020       -2.18830
S         -0.10150       -1.16580       -3.53890
C         -1.18860       -2.00300       -4.58940
C         -1.79540       -3.05440       -3.92050
C         -1.39240       -3.16850       -2.54730
C         -2.00250       -4.15180       -1.73470
C         -2.93310       -4.99680       -2.27490
O         -3.58600       -5.98360       -1.59610
C         -3.27050       -6.18940       -0.24370
C         -3.31060       -4.88980       -3.64320
C         -2.76970       -3.93890       -4.44410
C         -1.24030       -1.67640       -6.00730
C         -1.46970       -0.38940       -6.51040
N         -1.85440        0.76590       -5.85890
C         -2.66240        0.78550       -4.66440
C         -4.15240        0.80590       -5.00630
C         -1.81030        1.80960       -6.77050
C         -1.41440        1.30860       -8.03240
C         -1.22560       -0.10470       -7.87430
C         -0.86500       -1.10860       -8.76130
C         -0.74420       -2.39780       -8.28090
C         -0.90810       -2.66830       -6.92940
C         -1.24030        2.14980       -9.12120
C         -1.46010        3.49950       -8.94250
C         -1.81640        3.99740       -7.69670
C         -1.98900        3.18340       -6.58070
C         -2.28020        3.82780       -5.29070
C         -1.49520        4.77170       -4.76650
C         -0.28170        5.27610       -5.42080
C          0.73690        4.47860       -5.95570
N          0.97120        3.12150       -5.82220
C          0.64860        2.38990       -4.61880
C          1.77520        2.47910       -3.58970
C          2.04120        2.79330       -6.63750
C          2.52320        3.95890       -7.27540
C          1.69740        5.04240       -6.82620
C          1.72220        6.40630       -7.08150
C          0.79020        7.20720       -6.45340
C         -0.19400        6.64640       -5.64920
C          3.61410        3.90960       -8.13230
C          4.22510        2.69090       -8.34350
C          3.73970        1.54110       -7.73210
C          2.63640        1.55130       -6.88510
C          2.12760        0.28020       -6.35900
C          2.88550       -0.65560       -5.80880
H          4.85140        2.56780        3.92740
H          2.95990        2.89170        5.33250
H          1.38850        2.15290        5.69080
H          4.01720        0.61720        5.39940
H          2.44700       -0.08820        5.80350
H          3.23090        1.02130        6.93120
H          2.79470        1.94180       -0.56840
H          5.15670        2.62140       -0.33590
H          6.15710        2.92870        1.87800
H          0.20020        1.25480       -0.13680
H         -1.99340        0.63720        0.83860
H         -2.27810        0.52110        3.26690
H         -1.08560        1.68120        5.68780
H          0.27340       -1.02970        5.30700
H         -2.62490       -3.40940        5.17030
H         -1.63070       -1.95720        4.92140
H         -3.26960       -0.61400        6.22180
H         -4.07160       -1.42780        4.87220
H         -4.23990       -2.06100        6.51400
H         -0.94490       -1.42430       11.03450
H          0.00930        0.75380       10.35110
H          0.31940        1.29440        7.98630
H         -2.09660       -3.90180       11.10170
H         -3.10440       -6.09590       10.53900
H         -3.23370       -6.83980        8.21910
H         -3.14440       -6.39690        5.83480
H         -1.38770       -6.17230        4.27390
H         -1.77060       -4.45030        3.23790
H         -1.02450       -4.64550        1.65360
H         -2.09380       -2.01740        2.82560
H         -2.92690       -3.02680        1.64270
H         -1.43100       -2.19350        1.20820
H          3.12780       -2.75370        6.18780
H          2.08850       -4.24730        7.88400
H          0.08920       -5.51990        7.32670
H          3.86670       -1.53020        4.06470
H          4.15970       -0.59130        1.78070
H          2.59290       -1.16270        0.02210
H          0.05690       -3.71360        0.09300
H          0.74610       -0.95060       -0.98980
H         -1.74460       -4.20050       -0.69240
H         -2.21380       -6.44740       -0.11360
H         -3.50720       -5.30980        0.36490
H         -3.88650       -7.02660        0.08080
H         -4.05310       -5.58230       -4.00600
H         -3.07240       -3.83560       -5.47500
H         -2.39200        1.65770       -4.06460
H         -2.44880       -0.10950       -4.08130
H         -4.39590        1.66460       -5.62780
H         -4.42100       -0.09670       -5.55160
H         -4.74380        0.85020       -4.09520
H         -0.68040       -0.88060       -9.79950
H         -0.47860       -3.20220       -8.95000
H         -0.72900       -3.66820       -6.56180
H         -0.92930        1.75330      -10.07540
H         -1.33630        4.18400       -9.76800
H         -1.96110        5.06110       -7.57900
H         -3.19210        3.54900       -4.77880
H         -1.79560        5.27720       -3.85630
H          0.46430        1.34350       -4.85950
H         -0.25960        2.81860       -4.19590
H          2.68800        2.04120       -3.98680
H          1.97040        3.51650       -3.32510
H          1.49000        1.93470       -2.69320
H          2.45850        6.82580       -7.75000
H          0.79930        8.27570       -6.61020
H         -0.95350        7.28690       -5.22230
H          3.97000        4.80530       -8.61840
H          5.07870        2.61970       -9.00150
H          4.21160        0.59210       -7.94200
H          1.06740        0.10860       -6.48740
H          3.94440       -0.51530       -5.66320
H          2.47420       -1.59150       -5.47050
