94

C          8.06350        2.71350        1.92110
C          8.68800        1.45390        1.99050
N          9.22100        0.79170        3.00050
O          9.69160       -0.34430        2.49350
N          9.48630       -0.45810        1.18070
C          8.85510        0.63920        0.81020
C          8.39150        1.08410       -0.45720
C          7.83260        2.33930       -0.47400
C          7.65730        3.12680        0.68690
C          8.55500        0.29800       -1.66590
C          8.49230       -1.03640       -1.76860
C          8.09080       -1.97040       -0.73590
C          7.06680       -1.68390        0.20550
N          6.31770       -0.61210        0.37610
O          5.52280       -0.87280        1.41470
N          5.72000       -2.08470        1.92800
C          6.66970       -2.64590        1.20630
C          7.29600       -3.91990        1.29730
C          8.29220       -4.14550        0.37080
C          8.64900       -3.22420       -0.62850
C          6.98770       -4.88430        2.33220
C          5.79900       -5.10710        2.91800
C          4.52120       -4.57810        2.51030
C          3.52110       -4.31770        3.48120
N          3.52980       -4.48250        4.78880
O          2.34700       -4.05820        5.22690
N          1.55750       -3.61410        4.24360
C          2.24020       -3.75430        3.12540
C          1.91150       -3.47640        1.76590
C          2.89860       -3.81290        0.84800
C          4.14540       -4.33560        1.20220
C          0.67140       -2.90860        1.35890
C         -0.31400       -2.52960        2.21460
C         -1.54070       -1.95840        1.82710
S         -1.95700       -1.68150        0.16760
C         -3.47750       -0.96010        0.57410
C         -3.69090       -0.98730        1.96340
C         -2.58560       -1.54130        2.67520
C         -2.60860       -1.63790        4.07680
C         -3.72530       -1.22060        4.76150
O         -3.87510       -1.25210        6.10790
C         -2.80630       -1.72900        6.89250
C         -4.85110       -0.73390        4.04980
C         -4.84270       -0.62180        2.69220
C         -4.27720       -0.42180       -0.47440
C         -4.09880       -0.87820       -1.81180
N         -3.28930       -1.78790       -2.31120
O         -3.54200       -1.83630       -3.61940
N         -4.49710       -0.98360       -3.99400
C         -4.88360       -0.35680       -2.90110
C         -5.85830        0.65940       -2.70350
C         -5.97640        1.09720       -1.39080
C         -5.22530        0.58630       -0.33110
C         -6.59020        1.14630       -3.83210
C         -7.53360        2.11370       -3.80510
C         -8.25360        2.61000       -4.94000
C         -9.21090        3.64510       -4.74460
N         -9.58310        4.26500       -3.64330
O        -10.50800        5.15050       -4.00760
N        -10.75740        5.13320       -5.31730
C         -9.97250        4.20730       -5.83450
C         -9.79370        3.74100       -7.16540
C         -8.85760        2.73400       -7.30980
C         -8.11770        2.18910       -6.25170
C        -10.52190        4.26560       -8.29800
C        -11.43020        5.23690       -8.23730
H          7.93120        3.30290        2.81240
H          7.47950        2.73590       -1.41470
H          7.17960        4.08910        0.57770
H          8.76800        0.87480       -2.55710
H          8.75150       -1.49330       -2.71580
H          8.81650       -5.09010        0.39940
H          9.42870       -3.50380       -1.32200
H          7.84070       -5.45810        2.67290
H          5.76200       -5.75330        3.78540
H          2.69330       -3.65120       -0.20060
H          4.84280       -4.57270        0.41130
H          0.53110       -2.77170        0.29390
H         -0.14980       -2.67070        3.27310
H         -1.75330       -2.04890        4.58590
H         -1.90670       -1.12190        6.75380
H         -3.14080       -1.64960        7.92530
H         -2.57770       -2.77450        6.66430
H         -5.72150       -0.46320        4.62600
H         -5.72870       -0.28700        2.17860
H         -6.67810        1.88550       -1.16650
H         -5.36230        1.03490        0.63940
H         -6.32450        0.67030       -4.76560
H         -7.80120        2.58970       -2.87230
H         -8.68060        2.34040       -8.30100
H         -7.41210        1.40640       -6.48340
H        -10.27840        3.80460       -9.24720
H        -11.93950        5.58100       -9.12100
H        -11.68750        5.70400       -7.30280
