
  xtb     03022207453D
 energy: -217.883608805819 gnorm: 0.000275975273 xtb: 6.4.1 (unknown)
137151  0     0  0            999 V2000
    4.3181   12.3161   -9.1366 C   0  0  0  0  0  0  0  0  0  0  0  0
    4.2073   11.7536   -7.9173 C   0  0  0  0  0  0  0  0  0  0  0  0
    4.1463   10.3275   -7.9614 C   0  0  0  0  0  0  0  0  0  0  0  0
    4.0362    9.4271   -6.8964 C   0  0  0  0  0  0  0  0  0  0  0  0
    3.9247    9.8804   -5.4715 C   0  0  0  0  0  0  0  0  0  0  0  0
    2.4711   10.2017   -5.1192 C   0  0  0  0  0  0  0  0  0  0  0  0
    3.9885    8.0866   -7.2300 C   0  0  0  0  0  0  0  0  0  0  0  0
    4.0517    7.6044   -8.5611 C   0  0  0  0  0  0  0  0  0  0  0  0
    4.1653    8.5057   -9.6268 C   0  0  0  0  0  0  0  0  0  0  0  0
    4.2845    8.0428  -11.0482 C   0  0  0  0  0  0  0  0  0  0  0  0
    5.7257    7.6414  -11.3689 C   0  0  0  0  0  0  0  0  0  0  0  0
    4.2144    9.8467   -9.2919 C   0  0  0  0  0  0  0  0  0  0  0  0
    4.3583   11.1662  -10.4294 S   0  0  0  0  0  0  0  0  0  0  0  0
    3.9881    6.1875   -8.6148 C   0  0  0  0  0  0  0  0  0  0  0  0
    3.8963    5.5885   -7.3915 C   0  0  0  0  0  0  0  0  0  0  0  0
    3.8538    6.7712   -6.0911 S   0  0  0  0  0  0  0  0  0  0  0  0
    3.8160    4.2047   -7.0659 C   0  0  0  0  0  0  0  0  0  0  0  0
    3.0620    3.7251   -5.5835 S   0  0  0  0  0  0  0  0  0  0  0  0
    3.2968    2.0356   -5.8959 C   0  0  0  0  0  0  0  0  0  0  0  0
    3.9549    1.8530   -7.1168 C   0  0  0  0  0  0  0  0  0  0  0  0
    4.2649    3.0873   -7.7740 C   0  0  0  0  0  0  0  0  0  0  0  0
    5.0029    3.0818   -8.9773 C   0  0  0  0  0  0  0  0  0  0  0  0
    5.3679    1.8881   -9.5402 C   0  0  0  0  0  0  0  0  0  0  0  0
    6.0791    1.7486  -10.6915 O   0  0  0  0  0  0  0  0  0  0  0  0
    6.4915    2.9103  -11.3678 C   0  0  0  0  0  0  0  0  0  0  0  0
    5.0064    0.6633   -8.9181 C   0  0  0  0  0  0  0  0  0  0  0  0
    4.3328    0.6416   -7.7379 C   0  0  0  0  0  0  0  0  0  0  0  0
    2.8425    1.1063   -4.9227 C   0  0  0  0  0  0  0  0  0  0  0  0
    2.1887    1.4216   -3.7604 C   0  0  0  0  0  0  0  0  0  0  0  0
    1.8792    0.3102   -2.9431 C   0  0  0  0  0  0  0  0  0  0  0  0
    1.2339    0.2969   -1.6971 C   0  0  0  0  0  0  0  0  0  0  0  0
    0.7064    1.5492   -1.0644 C   0  0  0  0  0  0  0  0  0  0  0  0
   -0.6641    1.9107   -1.6402 C   0  0  0  0  0  0  0  0  0  0  0  0
    1.0784   -0.9390   -1.1022 C   0  0  0  0  0  0  0  0  0  0  0  0
    1.5298   -2.1541   -1.6796 C   0  0  0  0  0  0  0  0  0  0  0  0
    2.1570   -2.1434   -2.9336 C   0  0  0  0  0  0  0  0  0  0  0  0
    2.6800   -3.3945   -3.5732 C   0  0  0  0  0  0  0  0  0  0  0  0
    4.0682   -3.7422   -3.0324 C   0  0  0  0  0  0  0  0  0  0  0  0
    2.3205   -0.9063   -3.5228 C   0  0  0  0  0  0  0  0  0  0  0  0
    3.0981   -0.6245   -5.0607 S   0  0  0  0  0  0  0  0  0  0  0  0
    1.2749   -3.2671   -0.8421 C   0  0  0  0  0  0  0  0  0  0  0  0
    0.6672   -2.9464    0.3394 C   0  0  0  0  0  0  0  0  0  0  0  0
    0.3358   -1.2233    0.4528 S   0  0  0  0  0  0  0  0  0  0  0  0
    0.2985   -3.8054    1.4105 C   0  0  0  0  0  0  0  0  0  0  0  0
   -1.0070   -3.3740    2.4601 S   0  0  0  0  0  0  0  0  0  0  0  0
   -0.8727   -4.8291    3.3938 C   0  0  0  0  0  0  0  0  0  0  0  0
    0.1777   -5.6208    2.9115 C   0  0  0  0  0  0  0  0  0  0  0  0
    0.8519   -5.0338    1.7913 C   0  0  0  0  0  0  0  0  0  0  0  0
    1.9758   -5.6747    1.2439 C   0  0  0  0  0  0  0  0  0  0  0  0
    2.3940   -6.8861    1.7417 C   0  0  0  0  0  0  0  0  0  0  0  0
    3.4942   -7.4288    1.1476 O   0  0  0  0  0  0  0  0  0  0  0  0
    3.9816   -8.6642    1.6111 C   0  0  0  0  0  0  0  0  0  0  0  0
    1.6928   -7.4911    2.8106 C   0  0  0  0  0  0  0  0  0  0  0  0
    0.6225   -6.8700    3.3862 C   0  0  0  0  0  0  0  0  0  0  0  0
   -1.7843   -5.0335    4.4625 C   0  0  0  0  0  0  0  0  0  0  0  0
   -2.8435   -4.2257    4.7848 C   0  0  0  0  0  0  0  0  0  0  0  0
   -3.5950   -4.6624    5.9005 C   0  0  0  0  0  0  0  0  0  0  0  0
   -4.7379   -4.0779    6.4678 C   0  0  0  0  0  0  0  0  0  0  0  0
   -5.3180   -2.7983    5.9455 C   0  0  0  0  0  0  0  0  0  0  0  0
   -4.5814   -1.5916    6.5303 C   0  0  0  0  0  0  0  0  0  0  0  0
   -5.2766   -4.7251    7.5618 C   0  0  0  0  0  0  0  0  0  0  0  0
   -4.7434   -5.9162    8.1170 C   0  0  0  0  0  0  0  0  0  0  0  0
   -3.5990   -6.4985    7.5535 C   0  0  0  0  0  0  0  0  0  0  0  0
   -3.0178   -7.7776    8.0762 C   0  0  0  0  0  0  0  0  0  0  0  0
   -3.7482   -8.9845    7.4845 C   0  0  0  0  0  0  0  0  0  0  0  0
   -3.0667   -5.8561    6.4549 C   0  0  0  0  0  0  0  0  0  0  0  0
   -1.6668   -6.3968    5.5631 S   0  0  0  0  0  0  0  0  0  0  0  0
   -5.5053   -6.3700    9.2181 C   0  0  0  0  0  0  0  0  0  0  0  0
   -6.5867   -5.5861    9.5192 C   0  0  0  0  0  0  0  0  0  0  0  0
   -6.7022   -4.2126    8.4338 S   0  0  0  0  0  0  0  0  0  0  0  0
   -7.5202   -5.8258   10.5638 C   0  0  0  0  0  0  0  0  0  0  0  0
   -7.2676   -7.2076   11.5915 S   0  0  0  0  0  0  0  0  0  0  0  0
   -8.6638   -6.8887   12.5118 C   0  0  0  0  0  0  0  0  0  0  0  0
   -9.3264   -5.7653   12.0707 C   0  0  0  0  0  0  0  0  0  0  0  0
   -8.6773   -5.1419   10.9492 C   0  0  0  0  0  0  0  0  0  0  0  0
   -9.2466   -3.9836   10.3930 C   0  0  0  0  0  0  0  0  0  0  0  0
  -10.4062   -3.4628   10.9171 C   0  0  0  0  0  0  0  0  0  0  0  0
  -10.8811   -2.3396   10.3092 O   0  0  0  0  0  0  0  0  0  0  0  0
  -12.0673   -1.7506   10.7816 C   0  0  0  0  0  0  0  0  0  0  0  0
  -11.0418   -4.0839   12.0240 C   0  0  0  0  0  0  0  0  0  0  0  0
  -10.5167   -5.2056   12.5875 C   0  0  0  0  0  0  0  0  0  0  0  0
    4.3819   13.3589   -9.3802 H   0  0  0  0  0  0  0  0  0  0  0  0
    4.1664   12.3240   -7.0071 H   0  0  0  0  0  0  0  0  0  0  0  0
    4.5461   10.7626   -5.3096 H   0  0  0  0  0  0  0  0  0  0  0  0
    4.2844    9.0839   -4.8158 H   0  0  0  0  0  0  0  0  0  0  0  0
    2.0867   10.9872   -5.7663 H   0  0  0  0  0  0  0  0  0  0  0  0
    1.8509    9.3174   -5.2461 H   0  0  0  0  0  0  0  0  0  0  0  0
    2.3964   10.5319   -4.0859 H   0  0  0  0  0  0  0  0  0  0  0  0
    3.9812    8.8527  -11.7151 H   0  0  0  0  0  0  0  0  0  0  0  0
    3.6198    7.1939  -11.2198 H   0  0  0  0  0  0  0  0  0  0  0  0
    6.0593    6.8495  -10.7015 H   0  0  0  0  0  0  0  0  0  0  0  0
    6.3883    8.4945  -11.2439 H   0  0  0  0  0  0  0  0  0  0  0  0
    5.8030    7.2902  -12.3952 H   0  0  0  0  0  0  0  0  0  0  0  0
    3.9567    5.6390   -9.5373 H   0  0  0  0  0  0  0  0  0  0  0  0
    5.2915    4.0225   -9.4123 H   0  0  0  0  0  0  0  0  0  0  0  0
    5.6356    3.5133  -11.6885 H   0  0  0  0  0  0  0  0  0  0  0  0
    7.0368    2.5652  -12.2446 H   0  0  0  0  0  0  0  0  0  0  0  0
    7.1542    3.5225  -10.7472 H   0  0  0  0  0  0  0  0  0  0  0  0
    5.3046   -0.2488   -9.4095 H   0  0  0  0  0  0  0  0  0  0  0  0
    4.0877   -0.2993   -7.2742 H   0  0  0  0  0  0  0  0  0  0  0  0
    1.9448    2.4377   -3.5047 H   0  0  0  0  0  0  0  0  0  0  0  0
    0.6135    1.3924    0.0127 H   0  0  0  0  0  0  0  0  0  0  0  0
    1.4027    2.3729   -1.2317 H   0  0  0  0  0  0  0  0  0  0  0  0
   -0.5973    2.0658   -2.7147 H   0  0  0  0  0  0  0  0  0  0  0  0
   -1.3735    1.1082   -1.4517 H   0  0  0  0  0  0  0  0  0  0  0  0
   -1.0394    2.8209   -1.1788 H   0  0  0  0  0  0  0  0  0  0  0  0
    2.7438   -3.2419   -4.6531 H   0  0  0  0  0  0  0  0  0  0  0  0
    1.9949   -4.2232   -3.3858 H   0  0  0  0  0  0  0  0  0  0  0  0
    4.4377   -4.6531   -3.4971 H   0  0  0  0  0  0  0  0  0  0  0  0
    4.0329   -3.8898   -1.9554 H   0  0  0  0  0  0  0  0  0  0  0  0
    4.7663   -2.9360   -3.2455 H   0  0  0  0  0  0  0  0  0  0  0  0
    1.4967   -4.2786   -1.1251 H   0  0  0  0  0  0  0  0  0  0  0  0
    2.5426   -5.2193    0.4507 H   0  0  0  0  0  0  0  0  0  0  0  0
    3.2456   -9.4642    1.4801 H   0  0  0  0  0  0  0  0  0  0  0  0
    4.8567   -8.8802    1.0000 H   0  0  0  0  0  0  0  0  0  0  0  0
    4.2816   -8.6123    2.6627 H   0  0  0  0  0  0  0  0  0  0  0  0
    2.0096   -8.4476    3.1940 H   0  0  0  0  0  0  0  0  0  0  0  0
    0.1175   -7.3418    4.2126 H   0  0  0  0  0  0  0  0  0  0  0  0
   -3.0719   -3.3393    4.2197 H   0  0  0  0  0  0  0  0  0  0  0  0
   -6.3727   -2.7452    6.2253 H   0  0  0  0  0  0  0  0  0  0  0  0
   -5.2510   -2.7757    4.8565 H   0  0  0  0  0  0  0  0  0  0  0  0
   -5.0106   -0.6672    6.1516 H   0  0  0  0  0  0  0  0  0  0  0  0
   -4.6623   -1.5928    7.6149 H   0  0  0  0  0  0  0  0  0  0  0  0
   -3.5274   -1.6223    6.2632 H   0  0  0  0  0  0  0  0  0  0  0  0
   -1.9612   -7.8269    7.8025 H   0  0  0  0  0  0  0  0  0  0  0  0
   -3.0905   -7.8021    9.1648 H   0  0  0  0  0  0  0  0  0  0  0  0
   -3.3246   -9.9094    7.8683 H   0  0  0  0  0  0  0  0  0  0  0  0
   -3.6557   -8.9836    6.4008 H   0  0  0  0  0  0  0  0  0  0  0  0
   -4.8051   -8.9518    7.7394 H   0  0  0  0  0  0  0  0  0  0  0  0
   -5.2740   -7.2587    9.7781 H   0  0  0  0  0  0  0  0  0  0  0  0
   -8.9285   -7.5360   13.3237 H   0  0  0  0  0  0  0  0  0  0  0  0
   -8.7924   -3.4855    9.5536 H   0  0  0  0  0  0  0  0  0  0  0  0
  -11.9682   -1.4135   11.8188 H   0  0  0  0  0  0  0  0  0  0  0  0
  -12.2385   -0.8867   10.1410 H   0  0  0  0  0  0  0  0  0  0  0  0
  -12.9200   -2.4326   10.6988 H   0  0  0  0  0  0  0  0  0  0  0  0
  -11.9511   -3.6666   12.4266 H   0  0  0  0  0  0  0  0  0  0  0  0
  -10.9980   -5.6806   13.4291 H   0  0  0  0  0  0  0  0  0  0  0  0
  1  2  2  0  0  0  0
  2  3  1  0  0  0  0
  3  4  2  0  0  0  0
  4  5  1  0  0  0  0
  5  6  1  0  0  0  0
  4  7  1  0  0  0  0
  7  8  2  0  0  0  0
  8  9  1  0  0  0  0
  9 10  1  0  0  0  0
 10 11  1  0  0  0  0
  9 12  2  0  0  0  0
 12 13  1  0  0  0  0
  8 14  1  0  0  0  0
 14 15  2  0  0  0  0
 15 16  1  0  0  0  0
 15 17  1  0  0  0  0
 17 18  1  0  0  0  0
 18 19  1  0  0  0  0
 19 20  2  0  0  0  0
 20 21  1  0  0  0  0
 21 22  1  0  0  0  0
 22 23  2  0  0  0  0
 23 24  1  0  0  0  0
 24 25  1  0  0  0  0
 23 26  1  0  0  0  0
 26 27  2  0  0  0  0
 19 28  1  0  0  0  0
 28 29  2  0  0  0  0
 29 30  1  0  0  0  0
 30 31  2  0  0  0  0
 31 32  1  0  0  0  0
 32 33  1  0  0  0  0
 31 34  1  0  0  0  0
 34 35  2  0  0  0  0
 35 36  1  0  0  0  0
 36 37  1  0  0  0  0
 37 38  1  0  0  0  0
 36 39  2  0  0  0  0
 39 40  1  0  0  0  0
 35 41  1  0  0  0  0
 41 42  2  0  0  0  0
 42 43  1  0  0  0  0
 42 44  1  0  0  0  0
 44 45  1  0  0  0  0
 45 46  1  0  0  0  0
 46 47  2  0  0  0  0
 47 48  1  0  0  0  0
 48 49  1  0  0  0  0
 49 50  2  0  0  0  0
 50 51  1  0  0  0  0
 51 52  1  0  0  0  0
 50 53  1  0  0  0  0
 53 54  2  0  0  0  0
 46 55  1  0  0  0  0
 55 56  2  0  0  0  0
 56 57  1  0  0  0  0
 57 58  2  0  0  0  0
 58 59  1  0  0  0  0
 59 60  1  0  0  0  0
 58 61  1  0  0  0  0
 61 62  2  0  0  0  0
 62 63  1  0  0  0  0
 63 64  1  0  0  0  0
 64 65  1  0  0  0  0
 63 66  2  0  0  0  0
 66 67  1  0  0  0  0
 62 68  1  0  0  0  0
 68 69  2  0  0  0  0
 69 70  1  0  0  0  0
 69 71  1  0  0  0  0
 71 72  1  0  0  0  0
 72 73  1  0  0  0  0
 73 74  2  0  0  0  0
 74 75  1  0  0  0  0
 75 76  1  0  0  0  0
 76 77  2  0  0  0  0
 77 78  1  0  0  0  0
 78 79  1  0  0  0  0
 77 80  1  0  0  0  0
 80 81  2  0  0  0  0
 13  1  1  0  0  0  0
 21 17  2  0  0  0  0
 40 28  1  0  0  0  0
 48 44  2  0  0  0  0
 67 55  1  0  0  0  0
 75 71  2  0  0  0  0
 12  3  1  0  0  0  0
 27 20  1  0  0  0  0
 39 30  1  0  0  0  0
 54 47  1  0  0  0  0
 66 57  1  0  0  0  0
 81 74  1  0  0  0  0
 16  7  1  0  0  0  0
 43 34  1  0  0  0  0
 70 61  1  0  0  0  0
  1 82  1  0  0  0  0
  2 83  1  0  0  0  0
  5 84  1  0  0  0  0
  5 85  1  0  0  0  0
  6 86  1  0  0  0  0
  6 87  1  0  0  0  0
  6 88  1  0  0  0  0
 10 89  1  0  0  0  0
 10 90  1  0  0  0  0
 11 91  1  0  0  0  0
 11 92  1  0  0  0  0
 11 93  1  0  0  0  0
 14 94  1  0  0  0  0
 22 95  1  0  0  0  0
 25 96  1  0  0  0  0
 25 97  1  0  0  0  0
 25 98  1  0  0  0  0
 26 99  1  0  0  0  0
 27100  1  0  0  0  0
 29101  1  0  0  0  0
 32102  1  0  0  0  0
 32103  1  0  0  0  0
 33104  1  0  0  0  0
 33105  1  0  0  0  0
 33106  1  0  0  0  0
 37107  1  0  0  0  0
 37108  1  0  0  0  0
 38109  1  0  0  0  0
 38110  1  0  0  0  0
 38111  1  0  0  0  0
 41112  1  0  0  0  0
 49113  1  0  0  0  0
 52114  1  0  0  0  0
 52115  1  0  0  0  0
 52116  1  0  0  0  0
 53117  1  0  0  0  0
 54118  1  0  0  0  0
 56119  1  0  0  0  0
 59120  1  0  0  0  0
 59121  1  0  0  0  0
 60122  1  0  0  0  0
 60123  1  0  0  0  0
 60124  1  0  0  0  0
 64125  1  0  0  0  0
 64126  1  0  0  0  0
 65127  1  0  0  0  0
 65128  1  0  0  0  0
 65129  1  0  0  0  0
 68130  1  0  0  0  0
 73131  1  0  0  0  0
 76132  1  0  0  0  0
 79133  1  0  0  0  0
 79134  1  0  0  0  0
 79135  1  0  0  0  0
 80136  1  0  0  0  0
 81137  1  0  0  0  0
M  END
