154

C         -0.01350        1.30520       14.08710
S         -0.78700        1.09350       12.58110
C          0.47920        0.06760       11.97850
C          1.45170       -0.12960       12.96410
C          1.17060        0.60270       14.16700
C          2.05600        0.52500       15.26160
C          3.16100       -0.28470       15.18940
O          3.97220       -0.29730       16.28680
C          5.10910       -1.12430       16.29140
C          3.39500       -1.06640       14.02830
C          2.56340       -0.99600       12.94850
C          0.41170       -0.43310       10.65230
S         -1.12050       -0.87680        9.97170
C         -0.42860       -1.36200        8.44880
C          0.96840       -1.17020        8.48140
C          1.43330       -0.61920        9.71440
C          2.78310       -0.23950        9.86650
C          3.67110       -0.49250        8.85390
O          4.99560       -0.18130        8.87660
C          5.50920        0.45850       10.01860
C          3.23150       -1.13920        7.67130
C          1.92070       -1.45730        7.48200
C         -1.24960       -1.77680        7.38290
S         -0.64300       -1.81010        5.75040
C         -2.16600       -2.28500        5.06970
C         -3.13940       -2.36790        6.07630
C         -2.62150       -2.11740        7.38550
C         -3.48320       -2.23040        8.48510
C         -4.82490       -2.49010        8.30060
O         -5.56990       -2.59320        9.43560
C         -6.95490       -2.81190        9.32720
C         -5.35040       -2.61230        6.99610
C         -4.52370       -2.55660        5.90970
C         -2.27170       -2.49750        3.67720
S         -1.31010       -1.54390        2.58960
C         -2.02500       -2.26250        1.18490
C         -2.93280       -3.26500        1.54630
C         -3.05970       -3.41300        2.96130
C         -3.82620       -4.46640        3.49850
C         -4.50180       -5.30720        2.65110
O         -5.27840       -6.35260        3.04260
C         -5.40780       -6.61040        4.41880
C         -4.40210       -5.13800        1.24540
C         -3.62800       -4.15970        0.70300
C         -1.65390       -1.80290       -0.10490
C         -2.37870       -1.82510       -1.26520
C         -1.69480       -1.27850       -2.37460
C         -2.16240       -1.13500       -3.69370
C         -3.44420       -1.68190       -4.10120
S         -4.61940       -0.72040       -4.94700
C         -5.73570       -2.03920       -5.05600
C         -7.03360       -1.88520       -5.76850
C         -6.82210       -1.84650       -7.28360
C         -5.21040       -3.15400       -4.47420
Cl        -6.01690       -4.66750       -4.39110
C         -3.91420       -2.95470       -3.92880
Cl        -3.01030       -4.22870       -3.21560
C         -1.33380       -0.47150       -4.58860
C         -0.04640        0.00410       -4.24010
C          0.42660       -0.14810       -2.92260
C          1.72950        0.35820       -2.52600
S          2.87550       -0.65930       -1.70470
C          4.05320        0.60450       -1.61480
C          5.35720        0.39570       -0.92750
C          5.21430        0.60250        0.58240
C          3.56740        1.74550       -2.18000
C          2.25330        1.60960       -2.70220
Cl         1.40350        2.92910       -3.40120
Cl         4.44400        3.21830       -2.26620
C         -0.40950       -0.79390       -2.02460
S         -0.07720       -1.05790       -0.33750
C          0.62590        0.56730       -5.34960
C         -0.11750        0.56820       -6.49490
S         -1.68660       -0.17230       -6.26580
C          0.25890        1.10600       -7.76210
C          1.38010        1.83150       -8.04370
C          1.47080        2.22870       -9.39940
C          2.49820        2.95680      -10.02290
C          3.65690        3.41120       -9.27160
S          4.60360        2.30460       -8.31870
C          5.68330        3.55130       -7.79300
C          6.77650        3.25940       -6.82570
C          6.22050        3.09810       -5.40890
C          5.31670        4.74840       -8.33000
Cl         6.14030        6.22440       -8.03440
C          4.17360        4.67280       -9.17220
Cl         3.48030        6.06070       -9.89930
C          2.35840        3.20330      -11.38380
C          1.23340        2.77950      -12.13220
C          0.19180        2.08270      -11.50130
C         -0.99580        1.65180      -12.22360
S         -0.89420        0.64450      -13.63710
C         -2.61420        0.58710      -13.81790
C         -3.25810       -0.21370      -14.89550
C         -3.58780       -1.62550      -14.40440
C         -3.21690        1.30560      -12.82940
C         -2.30430        1.91230      -11.92540
Cl        -2.81740        2.93100      -10.64610
Cl        -4.91670        1.48430      -12.68120
C          0.34300        1.81020      -10.14760
S         -0.76290        0.89530       -9.16540
C          1.34300        3.15580      -13.50260
C          2.49710        3.79690      -13.77800
S          3.52080        4.00540      -12.40100
H         -0.46360        1.92480       14.83590
H          1.86220        1.08830       16.15970
H          5.58560       -0.95860       17.25660
H          4.84220       -2.18240       16.20090
H          5.81060       -0.85480       15.49470
H          4.23550       -1.74180       13.99730
H          2.73920       -1.62220       12.08720
H          3.07660        0.26090       10.77370
H          5.37660       -0.15430       10.91650
H          5.03960        1.43460       10.17720
H          6.57230        0.59610        9.82780
H          3.97120       -1.35320        6.91680
H          1.62130       -1.93950        6.56670
H         -3.12860       -2.12170        9.49500
H         -7.32440       -2.85530       10.35050
H         -7.45410       -1.99220        8.80020
H         -7.17790       -3.75890        8.82440
H         -6.40960       -2.74770        6.84520
H         -4.93180       -2.63080        4.91400
H         -3.83360       -4.60830        4.56610
H         -4.44330       -6.86010        4.87270
H         -6.07600       -7.46630        4.49780
H         -5.84430       -5.75690        4.94830
H         -4.93670       -5.83760        0.62300
H         -3.51490       -4.08850       -0.36550
H         -3.39790       -2.15800       -1.31310
H         -7.67830       -2.72540       -5.50530
H         -7.51730       -0.96010       -5.44820
H         -7.77570       -1.72910       -7.79120
H         -6.35700       -2.76850       -7.62350
H         -6.17700       -1.01330       -7.55210
H          5.71160       -0.61770       -1.12290
H          6.08310        1.10550       -1.32840
H          4.48690       -0.09480        0.99090
H          4.88100        1.61520        0.79410
H          6.16980        0.44010        1.07370
H          1.63080        0.94130       -5.30440
H          2.11350        2.08480       -7.30210
H          7.49220        4.08260       -6.85000
H          7.28870        2.34100       -7.11980
H          7.02670        2.88850       -4.71110
H          5.50750        2.27750       -5.37330
H          5.71740        4.00880       -5.09450
H         -4.17840        0.28740      -15.20270
H         -2.58680       -0.27240      -15.75350
H         -4.06810       -2.19320      -15.19670
H         -4.25990       -1.57910      -13.55140
H         -2.68000       -2.14300      -14.10390
H          0.58690        2.94690      -14.23660
H          2.82790        4.18020      -14.72350
