179

C          7.68180       -7.56930       12.08480
C          7.21650       -6.32580       11.85060
C          6.82420       -6.12730       10.49410
C          6.25520       -4.98300        9.91230
C          6.01710       -3.77130       10.68130
S          7.30270       -2.97630       11.54100
C          6.25910       -1.71020       12.09130
C          6.78100       -0.57490       12.90070
C          7.33160        0.53100       11.99700
C          4.99410       -1.90390       11.62330
Cl         3.67850       -0.85640       11.96330
C          4.85190       -3.07130       10.82550
Cl         3.34220       -3.57240       10.18820
C          5.93660       -5.05240        8.56180
C          6.15840       -6.21500        7.78360
C          6.67590       -7.37870        8.37750
C          6.82280       -8.59850        7.60280
S          8.31950       -9.48240        7.56250
C          7.68430      -10.66400        6.47010
C          8.53340      -11.76520        5.93800
C          9.24760      -11.33190        4.65530
C          6.38850      -10.37450        6.16240
C          5.89210       -9.21110        6.80690
Cl         4.25820       -8.70180        6.64610
Cl         5.42590      -11.31790        5.10160
C          7.01810       -7.29690        9.72130
S          7.67380       -8.58870       10.68700
C          5.82330       -6.01260        6.42540
C          5.32500       -4.76850        6.16420
S          5.28650       -3.76080        7.59280
C          4.81440       -4.31970        4.90970
C          4.74650       -5.06070        3.76390
C          4.09710       -4.40090        2.69800
C          3.79760       -4.91680        1.42100
C          4.14130       -6.28330        1.06440
S          3.71660       -7.61120        2.10990
C          4.39530       -8.78540        1.03620
C          4.33470      -10.23910        1.35070
C          2.96870      -10.82470        0.98630
C          4.90380       -8.17230       -0.06910
Cl         5.65810       -9.00710       -1.36610
C          4.76680       -6.75760       -0.05560
Cl         5.42500       -5.77190       -1.29380
C          3.11090       -4.07790        0.55700
C          2.72190       -2.76060        0.90980
C          3.02430       -2.24490        2.18370
C          2.59020       -0.91360        2.57440
S          0.92170       -0.43470        2.43300
C          1.23340        1.14140        3.07630
C          0.13310        2.12120        3.29230
C         -0.58370        1.85800        4.61860
C          2.55530        1.27190        3.38020
C          3.32660        0.11170        3.09900
Cl         5.02440        0.06000        3.32730
Cl         3.24980        2.70320        4.02410
C          3.70600       -3.08550        3.05330
S          4.11260       -2.73160        4.70830
C          2.02310       -2.12220       -0.13300
C          1.82680       -2.90380       -1.24280
S          2.54480       -4.48940       -1.03750
C          1.11020       -2.50050       -2.39510
S          0.31420       -0.96070       -2.33000
C         -0.34790       -1.12500       -3.92340
C          0.05040       -2.33600       -4.49650
C          0.88010       -3.11820       -3.62950
C          1.38090       -4.36080       -4.06150
C          1.06460       -4.81550       -5.31670
O          1.48900       -5.98800       -5.84780
C          2.33120       -6.80900       -5.07270
C          0.23580       -4.04010       -6.17280
C         -0.25840       -2.83560       -5.78040
C         -1.16330       -0.06220       -4.38670
C         -1.39230        1.08670       -3.67440
C         -2.25420        1.99940       -4.30770
C         -2.72240        3.22750       -3.79940
C         -2.22510        3.72040       -2.52520
S         -0.51160        3.84270       -2.24200
C         -0.73370        4.36130       -0.60550
C          0.43040        4.62800        0.28530
C          1.47960        3.52180        0.19470
C         -2.06290        4.44920       -0.31930
Cl        -2.68390        4.92060        1.21120
C         -2.91110        4.09290       -1.40380
Cl        -4.61840        4.05370       -1.25440
C         -3.65690        3.90050       -4.56590
C         -4.12770        3.42110       -5.81610
C         -3.63120        2.20820       -6.33630
C         -4.08100        1.68940       -7.61640
S         -5.77260        1.48170       -7.96790
C         -5.44960        0.82700       -9.53640
C         -6.55070        0.35800      -10.42190
C         -6.89340       -1.10670      -10.13910
C         -4.10630        0.77220       -9.75740
C         -3.32780        1.26240       -8.67500
Cl        -1.61950        1.37880       -8.75580
Cl        -3.40030        0.18210      -11.20590
C         -2.71010        1.51930       -5.55910
S         -2.02830       -0.04730       -5.91140
C         -5.06010        4.30430       -6.39730
C         -5.32680        5.42240       -5.64580
S         -4.37970        5.42980       -4.16780
C         -6.25320        6.44260       -5.96780
S         -7.14160        6.31010       -7.45930
C         -8.04720        7.75440       -7.15800
C         -7.64080        8.34900       -5.96060
C         -6.63730        7.59670       -5.27270
C         -6.14450        8.06040       -4.03710
C         -6.60030        9.24930       -3.52720
O         -6.20770        9.78870       -2.34630
C         -5.28530        9.07530       -1.55660
C         -7.53700       10.03200       -4.25520
C         -8.04460        9.59910       -5.43900
C         -9.04860        8.17440       -8.07560
S         -8.80130        7.98140       -9.78470
C        -10.31200        8.66990      -10.16430
C        -11.02110        9.02070       -9.03580
C        -10.30870        8.72640       -7.82390
C        -10.94650        8.92450       -6.58690
C        -12.21550        9.45230       -6.54440
O        -12.75440        9.60470       -5.30270
C        -14.06220       10.10690       -5.17540
C        -12.89170        9.79980       -7.74360
C        -12.31590        9.58230       -8.95780
H          8.03890       -7.97530       13.01090
H          7.14370       -5.56480       12.60540
H          5.96780       -0.17710       13.51070
H          7.57270       -0.93320       13.56090
H          7.70390        1.35490       12.59980
H          8.14580        0.14860       11.38600
H          6.55000        0.90420       11.34030
H          7.89970      -12.62910        5.72760
H          9.27220      -12.04680        6.68960
H          9.88770      -10.47510        4.85130
H          9.85940      -12.14570        4.27570
H          8.52160      -11.05730        3.89420
H          5.95620       -6.76140        5.66880
H          5.14120       -6.05550        3.68960
H          4.51760      -10.38700        2.41650
H          5.11640      -10.75160        0.78700
H          2.18260      -10.32260        1.54540
H          2.94300      -11.88470        1.22370
H          2.77510      -10.69960       -0.07620
H          0.55980        3.12560        3.30250
H         -0.58650        2.05160        2.47460
H          0.11440        1.93880        5.44790
H         -1.01540        0.86000        4.62310
H         -1.38000        2.58370        4.76020
H          1.66950       -1.10890       -0.08000
H          2.01160       -4.92700       -3.39810
H          3.26660       -6.29940       -4.82180
H          2.54730       -7.67810       -5.69150
H          1.83800       -7.13180       -4.15050
H          0.01910       -4.44340       -7.14890
H         -0.88000       -2.25550       -6.44370
H         -0.95770        1.25160       -2.70570
H          0.88980        5.58150        0.00850
H          0.06070        4.71900        1.30830
H          1.03870        2.55560        0.42770
H          2.28660        3.71120        0.89700
H          1.89440        3.47750       -0.80960
H         -6.23380        0.46390      -11.46130
H         -7.43440        0.97730      -10.25920
H         -6.02230       -1.73540      -10.30450
H         -7.21760       -1.22610       -9.10800
H         -7.69230       -1.43720      -10.79740
H         -5.53600        4.12970       -7.34520
H         -5.40960        7.47660       -3.51230
H         -4.32810        8.95070       -2.07270
H         -5.13780        9.67560       -0.66050
H         -5.67410        8.09160       -1.27630
H         -7.82470       10.98160       -3.83340
H         -8.73860       10.20710       -5.99680
H        -10.60840        8.77890      -11.18830
H        -10.46330        8.64960       -5.66410
H        -14.26750       10.11490       -4.10590
H        -14.14480       11.12740       -5.56350
H        -14.79350        9.46430       -5.67640
H        -13.88110       10.22620       -7.69760
H        -12.84060        9.82340       -9.86980
