170

C        -14.60150        0.17700       -6.83550
C        -14.37020        0.85610       -5.69500
C        -13.15740        1.60980       -5.72800
C        -12.60690        2.41830       -4.72870
C        -13.24870        2.57790       -3.38290
C        -12.83760        1.43630       -2.45090
C        -11.39890        3.02270       -5.02580
C        -10.72650        2.87130       -6.26460
C        -11.28510        2.07200       -7.26970
C        -10.59490        1.84020       -8.58030
C         -9.56890        0.71160       -8.45830
C        -12.48650        1.45780       -6.96630
S        -13.37300        0.39530       -8.03430
C         -9.50080        3.58750       -6.28880
C         -9.23090        4.25540       -5.13070
S        -10.49640        4.04610       -3.93860
C         -8.05920        5.00570       -4.80310
C         -6.95500        5.21470       -5.57690
C         -5.91380        5.91260       -4.91250
C         -4.63170        6.21910       -5.38920
C         -4.21610        5.92780       -6.79960
C         -4.70730        7.02550       -7.74520
C         -3.76800        6.80840       -4.48620
C         -4.12530        7.13490       -3.15260
C         -5.42420        6.88050       -2.69380
C         -5.84770        7.17830       -1.28660
C         -5.49050        6.01820       -0.35500
C         -6.27440        6.25220       -3.58360
S         -7.89140        5.71350       -3.21060
C         -3.01470        7.61340       -2.41170
C         -1.84790        7.63470       -3.11980
S         -2.08190        7.14880       -4.78630
C         -0.52710        7.80990       -2.60320
C         -0.16850        8.04420       -1.30710
C          1.21100        7.83870       -1.05060
C          1.85920        7.82070        0.19210
C          1.15700        8.18840        1.46520
C          0.41300        6.98430        2.04680
C          3.14430        7.31510        0.19810
C          3.84020        6.91570       -0.97090
C          3.23180        7.04510       -2.22690
C          3.95120        6.69580       -3.49430
C          4.92450        7.80790       -3.88870
C          1.91680        7.46990       -2.22470
S          0.85910        7.45480       -3.61410
C          5.05770        6.25790       -0.65830
C          5.27580        6.10970        0.67940
S          4.05090        6.92220        1.63990
C          6.16140        5.18420        1.30680
C          6.13900        4.78230        2.60950
C          6.81810        3.55850        2.84220
C          6.80830        2.78030        4.00680
C          6.18000        3.25930        5.28100
C          4.67860        2.96370        5.29650
C          7.29090        1.49120        3.87970
C          7.86070        0.97750        2.68700
C          7.98430        1.80060        1.55880
C          8.56860        1.30620        0.26910
C          7.50490        0.61050       -0.58320
C          7.41450        3.05460        1.65830
S          7.17080        4.14500        0.31420
C          8.10350       -0.41660        2.77790
C          7.70630       -0.96740        3.96230
S          7.13030        0.24370        5.08980
C          7.53020       -2.35450        4.25840
C          7.64970       -3.40310        3.39250
C          7.13570       -4.62410        3.89830
C          6.99680       -5.84600        3.22630
C          7.48290       -6.04400        1.82170
C          6.43640       -5.56840        0.81180
C          6.30340       -6.83520        3.89630
C          5.79200       -6.68720        5.21050
C          5.98090       -5.48450        5.90390
C          5.50330       -5.29680        7.31200
C          6.49480       -5.90740        8.30400
C          6.63420       -4.47890        5.21710
S          6.85580       -2.84730        5.79780
C          5.06490       -7.83410        5.62310
C          4.99610       -8.81200        4.67740
S          5.88250       -8.39140        3.22390
C          4.25900      -10.03190        4.73170
C          4.11430      -10.96290        3.74870
C          3.24730      -12.03310        4.09480
C          2.87010      -13.13060        3.31230
C          3.40970      -13.34500        1.93030
C          4.77920      -14.02490        1.98050
C          1.99890      -14.03020        3.89980
C          1.47730      -13.87930        5.20790
C          1.84130      -12.77400        5.98430
C          1.33580      -12.57880        7.38250
C          2.18520      -13.36490        8.38270
C          2.72700      -11.88440        5.40490
S          3.33480      -10.43460        6.16680
C          0.59670      -14.95160        5.54600
C          0.46290      -15.85690        4.55690
S          1.38910      -15.48330        3.14420
H        -15.43210       -0.46110       -7.06750
H        -15.03220        0.82860       -4.84850
H        -12.93160        3.52810       -2.94700
H        -14.33480        2.59520       -3.48600
H        -11.75820        1.43120       -2.31810
H        -13.30560        1.55590       -1.47680
H        -13.13730        0.47710       -2.86750
H        -11.33860        1.56840       -9.33270
H        -10.09780        2.75510       -8.90710
H        -10.06160       -0.21230       -8.16420
H         -8.82050        0.95540       -7.70740
H         -9.06950        0.54960       -9.41050
H         -8.83750        3.59670       -7.13390
H         -6.87700        4.85720       -6.58720
H         -4.61890        4.96390       -7.11590
H         -3.12620        5.87350       -6.84670
H         -4.28650        7.98560       -7.45560
H         -4.40420        6.80840       -8.76660
H         -5.79190        7.10160       -7.71050
H         -5.36540        8.09310       -0.93830
H         -6.92900        7.33270       -1.26570
H         -4.41850        5.83360       -0.36770
H         -5.79490        6.24410        0.66410
H         -5.99830        5.11140       -0.67490
H         -3.06890        7.87920       -1.37210
H         -0.88100        8.29120       -0.54190
H          0.45400        9.00220        1.27930
H          1.89650        8.53460        2.19100
H         -0.32110        6.60850        1.33750
H          1.11390        6.18350        2.27020
H         -0.09790        7.26340        2.96510
H          4.49970        5.76050       -3.36540
H          3.22010        6.55450       -4.29320
H          4.38670        8.74000       -4.04650
H          5.44290        7.54690       -4.80810
H          5.66200        7.96490       -3.10480
H          5.71180        5.82420       -1.39380
H          5.57160        5.30580        3.35830
H          6.65220        2.74840        6.12340
H          6.34490        4.33200        5.39480
H          4.18260        3.45600        4.46310
H          4.50640        1.89300        5.21560
H          4.23520        3.31640        6.22440
H          8.97040        2.15630       -0.28700
H          9.38750        0.61480        0.47440
H          7.94070        0.25280       -1.51300
H          7.07800       -0.23480       -0.04820
H          6.70290        1.30510       -0.82130
H          8.49980       -1.00130        1.96840
H          8.04190       -3.29420        2.39830
H          7.67840       -7.10650        1.65970
H          8.41580       -5.49840        1.67070
H          6.21430       -4.51380        0.95900
H          6.79830       -5.71140       -0.20360
H          5.51500       -6.13280        0.93380
H          4.52470       -5.76310        7.43920
H          5.40190       -4.22830        7.51520
H          6.61100       -6.97310        8.11960
H          6.14450       -5.76580        9.32350
H          7.46810       -5.43270        8.20280
H          4.57930       -7.92870        6.57810
H          4.61040      -10.87210        2.79870
H          3.49490      -12.38800        1.41240
H          2.71580      -13.97600        1.37040
H          5.16270      -14.17540        0.97430
H          5.48750      -13.41490        2.53670
H          4.69970      -14.99290        2.46970
H          1.37980      -11.51600        7.63160
H          0.29550      -12.90170        7.45020
H          1.81010      -13.22010        9.39300
H          3.21800      -13.02660        8.34450
H          2.16260      -14.42730        8.15020
H          0.09170      -15.03320        6.49140
H         -0.13180      -16.74980        4.55500
