
  xtb     03022215043D
 energy: -196.614491367499 gnorm: 0.000329496531 xtb: 6.4.1 (unknown)
104120  0     0  0            999 V2000
    5.9227    6.1290    4.6881 C   0  0  0  0  0  0  0  0  0  0  0  0
    6.9842    7.0802    3.7249 S   0  0  0  0  0  0  0  0  0  0  0  0
    6.3139    6.4783    2.2529 C   0  0  0  0  0  0  0  0  0  0  0  0
    5.3228    5.5901    2.5081 C   0  0  0  0  0  0  0  0  0  0  0  0
    5.0869    5.3794    3.9126 C   0  0  0  0  0  0  0  0  0  0  0  0
    4.0401    4.4402    4.0955 C   0  0  0  0  0  0  0  0  0  0  0  0
    3.5029    3.9682    2.9060 C   0  0  0  0  0  0  0  0  0  0  0  0
    4.2708    4.6427    1.4785 S   0  0  0  0  0  0  0  0  0  0  0  0
    2.4722    3.0417    3.0747 C   0  0  0  0  0  0  0  0  0  0  0  0
    2.2158    2.7898    4.4079 C   0  0  0  0  0  0  0  0  0  0  0  0
    3.2697    3.7206    5.4568 S   0  0  0  0  0  0  0  0  0  0  0  0
    1.2710    1.8925    4.9806 C   0  0  0  0  0  0  0  0  0  0  0  0
    0.3292    1.2553    4.2488 C   0  0  0  0  0  0  0  0  0  0  0  0
   -0.5832    0.2715    4.6921 C   0  0  0  0  0  0  0  0  0  0  0  0
   -0.6733   -0.4182    6.2934 S   0  0  0  0  0  0  0  0  0  0  0  0
   -1.8660   -1.5778    5.8185 C   0  0  0  0  0  0  0  0  0  0  0  0
   -2.1872   -1.4416    4.5063 C   0  0  0  0  0  0  0  0  0  0  0  0
   -1.4779   -0.3811    3.8610 C   0  0  0  0  0  0  0  0  0  0  0  0
   -1.8172   -0.3057    2.4986 C   0  0  0  0  0  0  0  0  0  0  0  0
   -2.7123   -1.2857    2.0857 C   0  0  0  0  0  0  0  0  0  0  0  0
   -3.2374   -2.3198    3.4054 S   0  0  0  0  0  0  0  0  0  0  0  0
   -2.9819   -1.2518    0.7155 C   0  0  0  0  0  0  0  0  0  0  0  0
   -2.3125   -0.2238    0.0827 C   0  0  0  0  0  0  0  0  0  0  0  0
   -1.3422    0.7166    1.1997 S   0  0  0  0  0  0  0  0  0  0  0  0
   -2.2714    0.0672   -1.3042 C   0  0  0  0  0  0  0  0  0  0  0  0
   -1.6364    1.1391   -1.8295 C   0  0  0  0  0  0  0  0  0  0  0  0
   -1.4407    1.3657   -3.2156 C   0  0  0  0  0  0  0  0  0  0  0  0
   -1.1193    2.9833   -3.7950 S   0  0  0  0  0  0  0  0  0  0  0  0
   -0.9278    2.4554   -5.4242 C   0  0  0  0  0  0  0  0  0  0  0  0
   -1.0946    1.1122   -5.5173 C   0  0  0  0  0  0  0  0  0  0  0  0
   -1.3965    0.4671   -4.2702 C   0  0  0  0  0  0  0  0  0  0  0  0
   -1.4730   -0.9326   -4.4555 C   0  0  0  0  0  0  0  0  0  0  0  0
   -1.2415   -1.3344   -5.7683 C   0  0  0  0  0  0  0  0  0  0  0  0
   -0.9427    0.0014   -6.8614 S   0  0  0  0  0  0  0  0  0  0  0  0
   -1.3039   -2.7118   -5.9616 C   0  0  0  0  0  0  0  0  0  0  0  0
   -1.5860   -3.4005   -4.7926 C   0  0  0  0  0  0  0  0  0  0  0  0
   -1.7662   -2.3022   -3.4427 S   0  0  0  0  0  0  0  0  0  0  0  0
   -1.8282   -4.7982   -4.7482 C   0  0  0  0  0  0  0  0  0  0  0  0
   -2.1968   -5.6459   -3.7513 C   0  0  0  0  0  0  0  0  0  0  0  0
   -2.2872   -5.5286   -2.3410 C   0  0  0  0  0  0  0  0  0  0  0  0
   -1.3267   -4.4753   -1.3571 S   0  0  0  0  0  0  0  0  0  0  0  0
   -1.8853   -5.1674    0.1356 C   0  0  0  0  0  0  0  0  0  0  0  0
   -2.8485   -6.1619   -0.1259 C   0  0  0  0  0  0  0  0  0  0  0  0
   -3.0478   -6.3836   -1.5212 C   0  0  0  0  0  0  0  0  0  0  0  0
   -3.9593   -7.3607   -1.9664 C   0  0  0  0  0  0  0  0  0  0  0  0
   -4.6590   -8.1032   -1.0488 C   0  0  0  0  0  0  0  0  0  0  0  0
   -5.5500   -9.0844   -1.3452 O   0  0  0  0  0  0  0  0  0  0  0  0
   -5.7683   -9.4091   -2.6963 C   0  0  0  0  0  0  0  0  0  0  0  0
   -4.4912   -7.8541    0.3361 C   0  0  0  0  0  0  0  0  0  0  0  0
   -3.6182   -6.9121    0.7874 C   0  0  0  0  0  0  0  0  0  0  0  0
   -1.3157   -4.7681    1.3668 C   0  0  0  0  0  0  0  0  0  0  0  0
   -1.6652   -5.6569    2.8422 S   0  0  0  0  0  0  0  0  0  0  0  0
   -0.6184   -4.6860    3.7996 C   0  0  0  0  0  0  0  0  0  0  0  0
   -0.0304   -3.7310    3.0410 C   0  0  0  0  0  0  0  0  0  0  0  0
   -0.3997   -3.7537    1.6516 C   0  0  0  0  0  0  0  0  0  0  0  0
    0.2637   -2.7026    0.9758 C   0  0  0  0  0  0  0  0  0  0  0  0
    1.0651   -1.9194    1.8080 C   0  0  0  0  0  0  0  0  0  0  0  0
    1.0943   -2.4628    3.4671 S   0  0  0  0  0  0  0  0  0  0  0  0
    1.6826   -0.8429    1.1759 C   0  0  0  0  0  0  0  0  0  0  0  0
    1.3801   -0.7973   -0.1691 C   0  0  0  0  0  0  0  0  0  0  0  0
    0.3244   -2.1101   -0.6441 S   0  0  0  0  0  0  0  0  0  0  0  0
    1.7880    0.1829   -1.1073 C   0  0  0  0  0  0  0  0  0  0  0  0
    1.5843    0.0940   -2.4403 C   0  0  0  0  0  0  0  0  0  0  0  0
    1.9263    1.1152   -3.3652 C   0  0  0  0  0  0  0  0  0  0  0  0
    2.2334    0.7134   -5.0374 S   0  0  0  0  0  0  0  0  0  0  0  0
    2.5548    2.3516   -5.4614 C   0  0  0  0  0  0  0  0  0  0  0  0
    2.4250    3.1633   -4.3810 C   0  0  0  0  0  0  0  0  0  0  0  0
    2.0663    2.4794   -3.1717 C   0  0  0  0  0  0  0  0  0  0  0  0
    1.8588    3.4171   -2.1299 C   0  0  0  0  0  0  0  0  0  0  0  0
    2.0727    4.7345   -2.5152 C   0  0  0  0  0  0  0  0  0  0  0  0
    2.5542    4.8984   -4.1909 S   0  0  0  0  0  0  0  0  0  0  0  0
    1.8384    5.6775   -1.5084 C   0  0  0  0  0  0  0  0  0  0  0  0
    1.4228    5.0900   -0.3393 C   0  0  0  0  0  0  0  0  0  0  0  0
    1.3262    3.3494   -0.4916 S   0  0  0  0  0  0  0  0  0  0  0  0
    1.0848    5.6853    0.9248 C   0  0  0  0  0  0  0  0  0  0  0  0
    1.2462    6.9692    1.2351 C   0  0  0  0  0  0  0  0  0  0  0  0
    5.9777    6.1782    5.7562 H   0  0  0  0  0  0  0  0  0  0  0  0
    6.6952    6.8170    1.3119 H   0  0  0  0  0  0  0  0  0  0  0  0
    1.9515    2.5707    2.2616 H   0  0  0  0  0  0  0  0  0  0  0  0
    1.3348    1.7212    6.0464 H   0  0  0  0  0  0  0  0  0  0  0  0
    0.2515    1.4696    3.1904 H   0  0  0  0  0  0  0  0  0  0  0  0
   -2.2411   -2.2757    6.5386 H   0  0  0  0  0  0  0  0  0  0  0  0
   -3.6202   -1.9446    0.1991 H   0  0  0  0  0  0  0  0  0  0  0  0
   -2.7758   -0.6383   -1.9461 H   0  0  0  0  0  0  0  0  0  0  0  0
   -1.2356    1.8947   -1.1647 H   0  0  0  0  0  0  0  0  0  0  0  0
   -0.7008    3.1633   -6.1945 H   0  0  0  0  0  0  0  0  0  0  0  0
   -1.1600   -3.1958   -6.9101 H   0  0  0  0  0  0  0  0  0  0  0  0
   -1.7823   -5.2418   -5.7367 H   0  0  0  0  0  0  0  0  0  0  0  0
   -2.4790   -6.6355   -4.0940 H   0  0  0  0  0  0  0  0  0  0  0  0
   -4.1000   -7.5005   -3.0253 H   0  0  0  0  0  0  0  0  0  0  0  0
   -6.4895  -10.2245   -2.6918 H   0  0  0  0  0  0  0  0  0  0  0  0
   -6.1837   -8.5615   -3.2510 H   0  0  0  0  0  0  0  0  0  0  0  0
   -4.8457   -9.7441   -3.1814 H   0  0  0  0  0  0  0  0  0  0  0  0
   -5.0878   -8.4348    1.0210 H   0  0  0  0  0  0  0  0  0  0  0  0
   -3.5385   -6.7324    1.8456 H   0  0  0  0  0  0  0  0  0  0  0  0
   -0.5156   -4.8756    4.8478 H   0  0  0  0  0  0  0  0  0  0  0  0
    2.3178   -0.1319    1.6713 H   0  0  0  0  0  0  0  0  0  0  0  0
    2.3081    1.0353   -0.6961 H   0  0  0  0  0  0  0  0  0  0  0  0
    1.1652   -0.8142   -2.8544 H   0  0  0  0  0  0  0  0  0  0  0  0
    2.8136    2.6042   -6.4689 H   0  0  0  0  0  0  0  0  0  0  0  0
    1.9589    6.7362   -1.6393 H   0  0  0  0  0  0  0  0  0  0  0  0
    0.6860    4.9989    1.6610 H   0  0  0  0  0  0  0  0  0  0  0  0
    0.9772    7.3460    2.2059 H   0  0  0  0  0  0  0  0  0  0  0  0
    1.6526    7.6807    0.5377 H   0  0  0  0  0  0  0  0  0  0  0  0
  1  2  1  0  0  0  0
  2  3  1  0  0  0  0
  3  4  2  0  0  0  0
  4  5  1  0  0  0  0
  5  6  1  0  0  0  0
  6  7  2  0  0  0  0
  7  8  1  0  0  0  0
  7  9  1  0  0  0  0
  9 10  2  0  0  0  0
 10 11  1  0  0  0  0
 10 12  1  0  0  0  0
 12 13  2  0  0  0  0
 13 14  1  0  0  0  0
 14 15  1  0  0  0  0
 15 16  1  0  0  0  0
 16 17  2  0  0  0  0
 17 18  1  0  0  0  0
 18 19  1  0  0  0  0
 19 20  2  0  0  0  0
 20 21  1  0  0  0  0
 20 22  1  0  0  0  0
 22 23  2  0  0  0  0
 23 24  1  0  0  0  0
 23 25  1  0  0  0  0
 25 26  2  0  0  0  0
 26 27  1  0  0  0  0
 27 28  1  0  0  0  0
 28 29  1  0  0  0  0
 29 30  2  0  0  0  0
 30 31  1  0  0  0  0
 31 32  1  0  0  0  0
 32 33  2  0  0  0  0
 33 34  1  0  0  0  0
 33 35  1  0  0  0  0
 35 36  2  0  0  0  0
 36 37  1  0  0  0  0
 36 38  1  0  0  0  0
 38 39  2  0  0  0  0
 39 40  1  0  0  0  0
 40 41  1  0  0  0  0
 41 42  1  0  0  0  0
 42 43  2  0  0  0  0
 43 44  1  0  0  0  0
 44 45  1  0  0  0  0
 45 46  2  0  0  0  0
 46 47  1  0  0  0  0
 47 48  1  0  0  0  0
 46 49  1  0  0  0  0
 49 50  2  0  0  0  0
 42 51  1  0  0  0  0
 51 52  1  0  0  0  0
 52 53  1  0  0  0  0
 53 54  2  0  0  0  0
 54 55  1  0  0  0  0
 55 56  1  0  0  0  0
 56 57  2  0  0  0  0
 57 58  1  0  0  0  0
 57 59  1  0  0  0  0
 59 60  2  0  0  0  0
 60 61  1  0  0  0  0
 60 62  1  0  0  0  0
 62 63  2  0  0  0  0
 63 64  1  0  0  0  0
 64 65  1  0  0  0  0
 65 66  1  0  0  0  0
 66 67  2  0  0  0  0
 67 68  1  0  0  0  0
 68 69  1  0  0  0  0
 69 70  2  0  0  0  0
 70 71  1  0  0  0  0
 70 72  1  0  0  0  0
 72 73  2  0  0  0  0
 73 74  1  0  0  0  0
 73 75  1  0  0  0  0
 75 76  2  0  0  0  0
  5  1  2  0  0  0  0
 11  6  1  0  0  0  0
 18 14  2  0  0  0  0
 24 19  1  0  0  0  0
 31 27  2  0  0  0  0
 37 32  1  0  0  0  0
 44 40  2  0  0  0  0
 55 51  2  0  0  0  0
 61 56  1  0  0  0  0
 68 64  2  0  0  0  0
 74 69  1  0  0  0  0
  8  4  1  0  0  0  0
 21 17  1  0  0  0  0
 34 30  1  0  0  0  0
 50 43  1  0  0  0  0
 58 54  1  0  0  0  0
 71 67  1  0  0  0  0
  1 77  1  0  0  0  0
  3 78  1  0  0  0  0
  9 79  1  0  0  0  0
 12 80  1  0  0  0  0
 13 81  1  0  0  0  0
 16 82  1  0  0  0  0
 22 83  1  0  0  0  0
 25 84  1  0  0  0  0
 26 85  1  0  0  0  0
 29 86  1  0  0  0  0
 35 87  1  0  0  0  0
 38 88  1  0  0  0  0
 39 89  1  0  0  0  0
 45 90  1  0  0  0  0
 48 91  1  0  0  0  0
 48 92  1  0  0  0  0
 48 93  1  0  0  0  0
 49 94  1  0  0  0  0
 50 95  1  0  0  0  0
 53 96  1  0  0  0  0
 59 97  1  0  0  0  0
 62 98  1  0  0  0  0
 63 99  1  0  0  0  0
 66100  1  0  0  0  0
 72101  1  0  0  0  0
 75102  1  0  0  0  0
 76103  1  0  0  0  0
 76104  1  0  0  0  0
M  END
