
  xtb     03012210503D
 energy: -175.636831445383 gnorm: 0.000766345159 xtb: 6.4.1 (unknown)
 94105  0     0  0            999 V2000
    8.0635    2.7135    1.9211 C   0  0  0  0  0  0  0  0  0  0  0  0
    8.6880    1.4539    1.9905 C   0  0  0  0  0  0  0  0  0  0  0  0
    9.2210    0.7917    3.0005 N   0  0  0  0  0  0  0  0  0  0  0  0
    9.6916   -0.3443    2.4935 O   0  0  0  0  0  0  0  0  0  0  0  0
    9.4863   -0.4581    1.1807 N   0  0  0  0  0  0  0  0  0  0  0  0
    8.8551    0.6392    0.8102 C   0  0  0  0  0  0  0  0  0  0  0  0
    8.3915    1.0841   -0.4572 C   0  0  0  0  0  0  0  0  0  0  0  0
    7.8326    2.3393   -0.4740 C   0  0  0  0  0  0  0  0  0  0  0  0
    7.6573    3.1268    0.6869 C   0  0  0  0  0  0  0  0  0  0  0  0
    8.5550    0.2980   -1.6659 C   0  0  0  0  0  0  0  0  0  0  0  0
    8.4923   -1.0364   -1.7686 C   0  0  0  0  0  0  0  0  0  0  0  0
    8.0908   -1.9704   -0.7359 C   0  0  0  0  0  0  0  0  0  0  0  0
    7.0668   -1.6839    0.2055 C   0  0  0  0  0  0  0  0  0  0  0  0
    6.3177   -0.6121    0.3761 N   0  0  0  0  0  0  0  0  0  0  0  0
    5.5228   -0.8728    1.4147 O   0  0  0  0  0  0  0  0  0  0  0  0
    5.7200   -2.0847    1.9280 N   0  0  0  0  0  0  0  0  0  0  0  0
    6.6697   -2.6459    1.2063 C   0  0  0  0  0  0  0  0  0  0  0  0
    7.2960   -3.9199    1.2973 C   0  0  0  0  0  0  0  0  0  0  0  0
    8.2922   -4.1455    0.3708 C   0  0  0  0  0  0  0  0  0  0  0  0
    8.6490   -3.2242   -0.6285 C   0  0  0  0  0  0  0  0  0  0  0  0
    6.9877   -4.8843    2.3322 C   0  0  0  0  0  0  0  0  0  0  0  0
    5.7990   -5.1071    2.9180 C   0  0  0  0  0  0  0  0  0  0  0  0
    4.5212   -4.5781    2.5103 C   0  0  0  0  0  0  0  0  0  0  0  0
    3.5211   -4.3177    3.4812 C   0  0  0  0  0  0  0  0  0  0  0  0
    3.5298   -4.4825    4.7888 N   0  0  0  0  0  0  0  0  0  0  0  0
    2.3470   -4.0582    5.2269 O   0  0  0  0  0  0  0  0  0  0  0  0
    1.5575   -3.6141    4.2436 N   0  0  0  0  0  0  0  0  0  0  0  0
    2.2402   -3.7543    3.1254 C   0  0  0  0  0  0  0  0  0  0  0  0
    1.9115   -3.4764    1.7659 C   0  0  0  0  0  0  0  0  0  0  0  0
    2.8986   -3.8129    0.8480 C   0  0  0  0  0  0  0  0  0  0  0  0
    4.1454   -4.3356    1.2022 C   0  0  0  0  0  0  0  0  0  0  0  0
    0.6714   -2.9086    1.3589 C   0  0  0  0  0  0  0  0  0  0  0  0
   -0.3140   -2.5296    2.2146 C   0  0  0  0  0  0  0  0  0  0  0  0
   -1.5407   -1.9584    1.8271 C   0  0  0  0  0  0  0  0  0  0  0  0
   -1.9570   -1.6815    0.1676 S   0  0  0  0  0  0  0  0  0  0  0  0
   -3.4775   -0.9601    0.5741 C   0  0  0  0  0  0  0  0  0  0  0  0
   -3.6909   -0.9873    1.9634 C   0  0  0  0  0  0  0  0  0  0  0  0
   -2.5856   -1.5413    2.6752 C   0  0  0  0  0  0  0  0  0  0  0  0
   -2.6086   -1.6379    4.0768 C   0  0  0  0  0  0  0  0  0  0  0  0
   -3.7253   -1.2206    4.7615 C   0  0  0  0  0  0  0  0  0  0  0  0
   -3.8751   -1.2521    6.1079 O   0  0  0  0  0  0  0  0  0  0  0  0
   -2.8063   -1.7290    6.8925 C   0  0  0  0  0  0  0  0  0  0  0  0
   -4.8511   -0.7339    4.0498 C   0  0  0  0  0  0  0  0  0  0  0  0
   -4.8427   -0.6218    2.6922 C   0  0  0  0  0  0  0  0  0  0  0  0
   -4.2772   -0.4218   -0.4744 C   0  0  0  0  0  0  0  0  0  0  0  0
   -4.0988   -0.8782   -1.8118 C   0  0  0  0  0  0  0  0  0  0  0  0
   -3.2893   -1.7879   -2.3112 N   0  0  0  0  0  0  0  0  0  0  0  0
   -3.5420   -1.8363   -3.6194 O   0  0  0  0  0  0  0  0  0  0  0  0
   -4.4971   -0.9836   -3.9940 N   0  0  0  0  0  0  0  0  0  0  0  0
   -4.8836   -0.3568   -2.9011 C   0  0  0  0  0  0  0  0  0  0  0  0
   -5.8583    0.6594   -2.7035 C   0  0  0  0  0  0  0  0  0  0  0  0
   -5.9764    1.0972   -1.3908 C   0  0  0  0  0  0  0  0  0  0  0  0
   -5.2253    0.5863   -0.3311 C   0  0  0  0  0  0  0  0  0  0  0  0
   -6.5902    1.1463   -3.8321 C   0  0  0  0  0  0  0  0  0  0  0  0
   -7.5336    2.1137   -3.8051 C   0  0  0  0  0  0  0  0  0  0  0  0
   -8.2536    2.6100   -4.9400 C   0  0  0  0  0  0  0  0  0  0  0  0
   -9.2109    3.6451   -4.7446 C   0  0  0  0  0  0  0  0  0  0  0  0
   -9.5831    4.2650   -3.6433 N   0  0  0  0  0  0  0  0  0  0  0  0
  -10.5080    5.1505   -4.0076 O   0  0  0  0  0  0  0  0  0  0  0  0
  -10.7574    5.1332   -5.3173 N   0  0  0  0  0  0  0  0  0  0  0  0
   -9.9725    4.2073   -5.8345 C   0  0  0  0  0  0  0  0  0  0  0  0
   -9.7937    3.7410   -7.1654 C   0  0  0  0  0  0  0  0  0  0  0  0
   -8.8576    2.7340   -7.3098 C   0  0  0  0  0  0  0  0  0  0  0  0
   -8.1177    2.1891   -6.2517 C   0  0  0  0  0  0  0  0  0  0  0  0
  -10.5219    4.2656   -8.2980 C   0  0  0  0  0  0  0  0  0  0  0  0
  -11.4302    5.2369   -8.2373 C   0  0  0  0  0  0  0  0  0  0  0  0
    7.9312    3.3029    2.8124 H   0  0  0  0  0  0  0  0  0  0  0  0
    7.4795    2.7359   -1.4147 H   0  0  0  0  0  0  0  0  0  0  0  0
    7.1796    4.0891    0.5777 H   0  0  0  0  0  0  0  0  0  0  0  0
    8.7680    0.8748   -2.5571 H   0  0  0  0  0  0  0  0  0  0  0  0
    8.7515   -1.4933   -2.7158 H   0  0  0  0  0  0  0  0  0  0  0  0
    8.8165   -5.0901    0.3994 H   0  0  0  0  0  0  0  0  0  0  0  0
    9.4287   -3.5038   -1.3220 H   0  0  0  0  0  0  0  0  0  0  0  0
    7.8407   -5.4581    2.6729 H   0  0  0  0  0  0  0  0  0  0  0  0
    5.7620   -5.7533    3.7854 H   0  0  0  0  0  0  0  0  0  0  0  0
    2.6933   -3.6512   -0.2006 H   0  0  0  0  0  0  0  0  0  0  0  0
    4.8428   -4.5727    0.4113 H   0  0  0  0  0  0  0  0  0  0  0  0
    0.5311   -2.7717    0.2939 H   0  0  0  0  0  0  0  0  0  0  0  0
   -0.1498   -2.6707    3.2731 H   0  0  0  0  0  0  0  0  0  0  0  0
   -1.7533   -2.0489    4.5859 H   0  0  0  0  0  0  0  0  0  0  0  0
   -1.9067   -1.1219    6.7538 H   0  0  0  0  0  0  0  0  0  0  0  0
   -3.1408   -1.6496    7.9253 H   0  0  0  0  0  0  0  0  0  0  0  0
   -2.5777   -2.7745    6.6643 H   0  0  0  0  0  0  0  0  0  0  0  0
   -5.7215   -0.4632    4.6260 H   0  0  0  0  0  0  0  0  0  0  0  0
   -5.7287   -0.2870    2.1786 H   0  0  0  0  0  0  0  0  0  0  0  0
   -6.6781    1.8855   -1.1665 H   0  0  0  0  0  0  0  0  0  0  0  0
   -5.3623    1.0349    0.6394 H   0  0  0  0  0  0  0  0  0  0  0  0
   -6.3245    0.6703   -4.7656 H   0  0  0  0  0  0  0  0  0  0  0  0
   -7.8012    2.5897   -2.8723 H   0  0  0  0  0  0  0  0  0  0  0  0
   -8.6806    2.3404   -8.3010 H   0  0  0  0  0  0  0  0  0  0  0  0
   -7.4121    1.4064   -6.4834 H   0  0  0  0  0  0  0  0  0  0  0  0
  -10.2784    3.8046   -9.2472 H   0  0  0  0  0  0  0  0  0  0  0  0
  -11.9395    5.5810   -9.1210 H   0  0  0  0  0  0  0  0  0  0  0  0
  -11.6875    5.7040   -7.3028 H   0  0  0  0  0  0  0  0  0  0  0  0
  1  2  1  0  0  0  0
  2  3  2  0  0  0  0
  3  4  1  0  0  0  0
  4  5  1  0  0  0  0
  5  6  2  0  0  0  0
  6  7  1  0  0  0  0
  7  8  2  0  0  0  0
  8  9  1  0  0  0  0
  7 10  1  0  0  0  0
 10 11  2  0  0  0  0
 11 12  1  0  0  0  0
 12 13  1  0  0  0  0
 13 14  2  0  0  0  0
 14 15  1  0  0  0  0
 15 16  1  0  0  0  0
 16 17  2  0  0  0  0
 17 18  1  0  0  0  0
 18 19  2  0  0  0  0
 19 20  1  0  0  0  0
 18 21  1  0  0  0  0
 21 22  2  0  0  0  0
 22 23  1  0  0  0  0
 23 24  1  0  0  0  0
 24 25  2  0  0  0  0
 25 26  1  0  0  0  0
 26 27  1  0  0  0  0
 27 28  2  0  0  0  0
 28 29  1  0  0  0  0
 29 30  2  0  0  0  0
 30 31  1  0  0  0  0
 29 32  1  0  0  0  0
 32 33  2  0  0  0  0
 33 34  1  0  0  0  0
 34 35  1  0  0  0  0
 35 36  1  0  0  0  0
 36 37  2  0  0  0  0
 37 38  1  0  0  0  0
 38 39  1  0  0  0  0
 39 40  2  0  0  0  0
 40 41  1  0  0  0  0
 41 42  1  0  0  0  0
 40 43  1  0  0  0  0
 43 44  2  0  0  0  0
 36 45  1  0  0  0  0
 45 46  1  0  0  0  0
 46 47  2  0  0  0  0
 47 48  1  0  0  0  0
 48 49  1  0  0  0  0
 49 50  2  0  0  0  0
 50 51  1  0  0  0  0
 51 52  2  0  0  0  0
 52 53  1  0  0  0  0
 51 54  1  0  0  0  0
 54 55  2  0  0  0  0
 55 56  1  0  0  0  0
 56 57  1  0  0  0  0
 57 58  2  0  0  0  0
 58 59  1  0  0  0  0
 59 60  1  0  0  0  0
 60 61  2  0  0  0  0
 61 62  1  0  0  0  0
 62 63  2  0  0  0  0
 63 64  1  0  0  0  0
 62 65  1  0  0  0  0
 65 66  2  0  0  0  0
  9  1  2  0  0  0  0
 20 12  2  0  0  0  0
 31 23  2  0  0  0  0
 38 34  2  0  0  0  0
 53 45  2  0  0  0  0
 64 56  2  0  0  0  0
  6  2  1  0  0  0  0
 17 13  1  0  0  0  0
 28 24  1  0  0  0  0
 44 37  1  0  0  0  0
 50 46  1  0  0  0  0
 61 57  1  0  0  0  0
  1 67  1  0  0  0  0
  8 68  1  0  0  0  0
  9 69  1  0  0  0  0
 10 70  1  0  0  0  0
 11 71  1  0  0  0  0
 19 72  1  0  0  0  0
 20 73  1  0  0  0  0
 21 74  1  0  0  0  0
 22 75  1  0  0  0  0
 30 76  1  0  0  0  0
 31 77  1  0  0  0  0
 32 78  1  0  0  0  0
 33 79  1  0  0  0  0
 39 80  1  0  0  0  0
 42 81  1  0  0  0  0
 42 82  1  0  0  0  0
 42 83  1  0  0  0  0
 43 84  1  0  0  0  0
 44 85  1  0  0  0  0
 52 86  1  0  0  0  0
 53 87  1  0  0  0  0
 54 88  1  0  0  0  0
 55 89  1  0  0  0  0
 63 90  1  0  0  0  0
 64 91  1  0  0  0  0
 65 92  1  0  0  0  0
 66 93  1  0  0  0  0
 66 94  1  0  0  0  0
M  END
