232

C          0.68650       -7.57440        6.36790
C         -0.07070       -6.63590        5.76570
C         -1.45160       -6.73770        6.10820
C         -2.52230       -5.98120        5.61040
C         -2.29450       -4.99650        4.55650
S         -1.38460       -3.53730        4.79090
C         -1.42950       -3.14240        3.10350
C         -0.76310       -1.92550        2.56310
C         -1.09940       -0.67490        3.36850
C         -2.11420       -4.09940        2.41840
Cl        -2.27310       -4.12270        0.71200
C         -2.62440       -5.14050        3.24030
Cl        -3.52360       -6.46400        2.61990
C         -3.79110       -6.30960        6.06130
C         -4.03720       -7.40060        6.92980
C         -2.96870       -8.16340        7.42560
C         -3.19160       -9.29570        8.30820
S         -4.31190      -10.55530        7.88500
C         -3.96020      -11.46090        9.31590
C         -4.66550      -12.73940        9.60750
C         -6.05980      -12.47900       10.18150
C         -3.04140      -10.80330       10.07760
C         -2.59970       -9.57880        9.50840
Cl        -1.50420       -8.53890       10.31770
Cl        -2.45180      -11.38270       11.58130
C         -1.69110       -7.80160        7.01020
S         -0.21370       -8.63960        7.39080
C         -5.42080       -7.54550        7.20390
C         -6.19790       -6.60280        6.60820
S         -5.25980       -5.47090        5.65820
C         -7.62730       -6.50700        6.73620
S         -8.41250       -5.00710        7.11800
C         -9.92810       -5.80180        7.24770
C         -9.83960       -7.13450        7.00680
C         -8.52320       -7.55530        6.69240
C         -8.18160       -8.90520        6.23660
C         -7.74960       -9.17560        4.98820
C         -7.33500      -10.56450        4.58590
C         -5.84420      -10.72240        4.62130
S         -4.77220       -9.40910        4.24690
C         -3.37740      -10.41360        4.47450
C         -2.01290       -9.87090        4.22080
C         -1.61750      -10.03390        2.75150
C         -3.74120      -11.67640        4.81670
C         -5.14160      -11.84980        4.90670
C         -7.62600       -8.11060        4.03170
C         -7.19580       -8.12960        2.75500
C         -6.96080       -6.89620        2.07120
C         -6.46290       -6.66510        0.82030
C         -6.13890       -5.30440        0.57860
C         -5.51050       -4.72890       -0.54060
C         -5.29300       -5.48200       -1.76140
S         -3.74090       -5.50830       -2.54510
C         -4.31910       -6.51010       -3.83240
C         -3.42120       -6.89570       -4.95580
C         -2.95250       -5.66560       -5.73420
C         -5.63750       -6.80240       -3.64870
Cl        -6.56920       -7.76520       -4.72300
C         -6.19150       -6.22820       -2.47300
Cl        -7.84920       -6.39400       -2.05820
C         -5.05780       -3.42150       -0.40420
C         -5.19110       -2.66810        0.78860
C         -5.90280       -3.20760        1.87140
C         -6.02400       -2.53990        3.15590
S         -4.60760       -1.99340        4.00460
C         -5.51410       -1.56150        5.41270
C         -4.86920       -1.01250        6.63880
C         -3.50010       -0.40610        6.36340
C         -6.83690       -1.82330        5.21610
C         -7.12980       -2.38220        3.94420
Cl        -8.73110       -2.73420        3.44910
Cl        -8.04770       -1.51820        6.39160
C         -6.38080       -4.50160        1.72060
S         -7.13810       -5.40780        2.98210
C         -4.51050       -1.42970        0.71560
C         -3.88780       -1.22570       -0.47980
S         -4.16460       -2.53720       -1.60860
C         -2.99870       -0.17440       -0.84190
C         -2.33720       -0.03620       -2.02540
C         -1.41400        1.03570       -2.03700
C         -0.55390        1.42580       -3.07890
C         -0.46810        0.64420       -4.30010
S         -0.60820        1.38300       -5.86730
C         -0.43210       -0.13170       -6.68410
C         -0.52430       -0.22800       -8.16680
C         -1.97470       -0.43320       -8.61110
C         -0.27590       -1.14120       -5.78160
Cl        -0.07930       -2.78930       -6.21610
C         -0.28690       -0.70660       -4.42980
Cl        -0.01070       -1.78410       -3.12070
C          0.21700        2.56030       -2.86560
C          0.18840        3.29420       -1.65370
C         -0.66060        2.89330       -0.60700
C         -0.73360        3.63870        0.63780
S         -0.55120        2.84300        2.17110
C         -0.79830        4.31020        3.05590
C         -0.79220        4.31060        4.54480
C         -1.85250        3.36300        5.10600
C         -1.00690        5.34700        2.19700
C         -0.96740        4.97210        0.82560
Cl        -1.27390        6.08620       -0.44370
Cl        -1.29650        6.96460        2.69270
C         -1.42790        1.75640       -0.81830
S         -2.54560        1.05660        0.32030
C          1.12710        4.35370       -1.65710
C          1.83490        4.45120       -2.81800
S          1.38130        3.21900       -3.97940
C          2.86320        5.38690       -3.12910
C          3.62780        5.44480       -4.25640
C          4.60190        6.47160       -4.22590
C          5.53890        6.81350       -5.21600
C          5.68420        6.03810       -6.43640
S          5.66230        6.79480       -8.00130
C          5.86930        5.28760       -8.82450
C          5.94290        5.20480      -10.31040
C          7.38450        5.03520      -10.79480
C          5.96540        4.26850       -7.92450
Cl         6.16480        2.62250       -8.36670
C          5.86300        4.68910       -6.57210
Cl         6.02990        3.60040       -5.25460
C          6.33040        7.92620       -4.97100
C          6.25630        8.69460       -3.78530
C          5.34540        8.33040       -2.77810
C          5.24080        9.08350       -1.53930
S          4.95900       10.80010       -1.55180
C          4.92420       10.88810        0.17600
C          4.64600       12.16970        0.88070
C          3.13920       12.39060        1.03560
C          5.11760        9.65200        0.71570
C          5.30110        8.62780       -0.25180
Cl         5.65000        7.00750        0.18340
Cl         5.15160        9.34050        2.40260
C          4.53840        7.22680       -3.02730
S          3.29130        6.62930       -1.97130
C          7.21600        9.73660       -3.77860
C          7.99470        9.77490       -4.90010
S          7.56530        8.51650       -6.03730
C          9.08310       10.66140       -5.16260
S          9.49700       11.89070       -3.99620
C         10.84750       12.37830       -4.93760
C         10.98030       11.64330       -6.07050
C          9.96920       10.66420       -6.22210
C          9.90210        9.73730       -7.35280
C          8.95140        9.74680       -8.29910
C          8.88380        8.67710       -9.36400
C          9.74410        7.48850       -9.10610
S          9.29750        6.32420       -7.89390
C         10.68640        5.34500       -8.25390
C         10.92730        4.07900       -7.50510
C          9.74500        3.11830       -7.61900
C         11.42860        5.90290       -9.24470
C         10.89400        7.12060       -9.72850
C          7.93860       10.79070       -8.32900
C          6.93090       10.88810       -9.18920
H          1.74570       -7.72040        6.28490
H          0.31750       -5.89060        5.09600
H          0.32080       -2.07520        2.56850
H         -1.07910       -1.79820        1.52630
H         -2.17110       -0.49850        3.35640
H         -0.59890        0.18780        2.93880
H         -0.77470       -0.79230        4.39960
H         -4.07330      -13.30970       10.32500
H         -4.75550      -13.31970        8.68710
H         -6.56170      -13.42040       10.38790
H         -5.98670      -11.91280       11.10660
H         -6.65750      -11.91110        9.47230
H         -5.82720       -8.30770        7.84240
H        -10.80070       -5.22910        7.49180
H        -10.68190       -7.80280        7.02270
H         -8.33370       -9.70970        6.94460
H         -7.77350      -11.30450        5.25930
H         -7.70000      -10.77330        3.57460
H         -1.29460      -10.39620        4.85510
H         -1.98950       -8.80990        4.47590
H         -2.31200       -9.49000        2.11530
H         -1.63520      -11.08330        2.46660
H         -0.61690       -9.64190        2.58600
H         -3.03260      -12.46320        5.00730
H         -5.60730      -12.78320        5.17020
H         -7.90530       -7.14000        4.41860
H         -6.92920       -9.03590        2.23100
H         -6.27160       -7.45120        0.11200
H         -3.96360       -7.57360       -5.61690
H         -2.54940       -7.42300       -4.56020
H         -2.40630       -4.99110       -5.07900
H         -3.80480       -5.13180       -6.14780
H         -2.29950       -5.96430       -6.54990
H         -4.76920       -1.82060        7.37100
H         -5.53810       -0.26410        7.07170
H         -3.57710        0.39350        5.63080
H         -2.82320       -1.16570        5.97980
H         -3.08040        0.00200        7.27880
H         -4.45780       -0.72600        1.52680
H         -2.51570       -0.68680       -2.86170
H         -0.13170        0.68670       -8.61350
H          0.08210       -1.07150       -8.50260
H         -2.02690       -0.50530       -9.69400
H         -2.59030        0.40200       -8.28590
H         -2.37410       -1.34810       -8.18080
H         -0.97630        5.32930        4.88950
H          0.19230        3.99960        4.90410
H         -2.84150        3.65860        4.76470
H         -1.66020        2.34480        4.77530
H         -1.83750        3.38710        6.19220
H          1.29420        5.01080       -0.82300
H          3.48680        4.77430       -5.08460
H          5.51310        6.11010      -10.74130
H          5.35230        4.34720      -10.64170
H          7.82310        4.14050      -10.36220
H          7.40430        4.94460      -11.87760
H          7.99020        5.88940      -10.50580
H          5.11310       12.13590        1.86680
H          5.07890       12.99620        0.31480
H          2.69660       11.57880        1.60720
H          2.66130       12.42930        0.05960
H          2.95040       13.32630        1.55490
H          7.34120       10.42640       -2.96320
H         11.46450       13.18370       -4.59180
H         11.76180       11.79310       -6.79380
H         10.69610        9.00150       -7.39220
H          7.84130        8.34930       -9.42040
H          9.15640        9.11300      -10.32990
H         11.09850        4.30640       -6.44840
H         11.83090        3.60840       -7.89930
H          8.85010        3.57500       -7.20280
H          9.94930        2.19850       -7.07650
H          9.55500        2.87120       -8.66130
H         12.33340        5.46190       -9.62440
H         11.34920        7.69610      -10.51560
H          8.05530       11.55610       -7.57270
H          6.23700       11.70940       -9.13800
H          6.74890       10.16820       -9.96810
