
  xtb     03052206303D
 energy: -396.495525066729 gnorm: 0.000337162860 xtb: 6.4.1 (unknown)
226247  0     0  0            999 V2000
    3.8414   -7.4864    6.4621 C   0  0  0  0  0  0  0  0  0  0  0  0
    2.7979   -6.6474    6.6102 C   0  0  0  0  0  0  0  0  0  0  0  0
    2.4043   -6.0307    5.3862 C   0  0  0  0  0  0  0  0  0  0  0  0
    1.3550   -5.1266    5.1708 C   0  0  0  0  0  0  0  0  0  0  0  0
    0.4461   -4.6795    6.2335 C   0  0  0  0  0  0  0  0  0  0  0  0
    0.1511   -3.3263    6.3806 C   0  0  0  0  0  0  0  0  0  0  0  0
   -0.7242   -2.8805    7.3491 C   0  0  0  0  0  0  0  0  0  0  0  0
   -1.3416   -3.7752    8.2135 C   0  0  0  0  0  0  0  0  0  0  0  0
   -2.5064   -3.3282    9.4598 S   0  0  0  0  0  0  0  0  0  0  0  0
   -2.2016   -1.5453    9.7215 C   0  0  0  0  0  0  0  0  0  0  0  0
   -0.8469   -1.2789   10.3488 C   0  0  0  0  0  0  0  0  0  0  0  0
   -1.0476   -5.1295    8.0517 C   0  0  0  0  0  0  0  0  0  0  0  0
   -1.6446   -6.0316    8.8581 F   0  0  0  0  0  0  0  0  0  0  0  0
   -0.1743   -5.5868    7.0893 C   0  0  0  0  0  0  0  0  0  0  0  0
    1.2102   -4.6531    3.8756 C   0  0  0  0  0  0  0  0  0  0  0  0
    2.0416   -5.0306    2.7919 C   0  0  0  0  0  0  0  0  0  0  0  0
    3.0864   -5.9477    3.0060 C   0  0  0  0  0  0  0  0  0  0  0  0
    3.9639   -6.3804    1.9138 C   0  0  0  0  0  0  0  0  0  0  0  0
    3.4564   -6.7283    0.6634 C   0  0  0  0  0  0  0  0  0  0  0  0
    4.2882   -7.1076   -0.3729 C   0  0  0  0  0  0  0  0  0  0  0  0
    5.6666   -7.1699   -0.1963 C   0  0  0  0  0  0  0  0  0  0  0  0
    6.8481   -7.5919   -1.4267 S   0  0  0  0  0  0  0  0  0  0  0  0
    5.8566   -8.2748   -2.7983 C   0  0  0  0  0  0  0  0  0  0  0  0
    5.2941   -9.6460   -2.4746 C   0  0  0  0  0  0  0  0  0  0  0  0
    6.1593   -6.8411    1.0679 C   0  0  0  0  0  0  0  0  0  0  0  0
    5.3434   -6.4522    2.1043 C   0  0  0  0  0  0  0  0  0  0  0  0
    7.4911   -6.8799    1.2828 F   0  0  0  0  0  0  0  0  0  0  0  0
    3.2388   -6.4176    4.3081 C   0  0  0  0  0  0  0  0  0  0  0  0
    4.4312   -7.5781    4.8389 S   0  0  0  0  0  0  0  0  0  0  0  0
    1.6648   -4.3711    1.5895 C   0  0  0  0  0  0  0  0  0  0  0  0
    0.5630   -3.5843    1.7262 C   0  0  0  0  0  0  0  0  0  0  0  0
   -0.0419   -3.5579    3.3699 S   0  0  0  0  0  0  0  0  0  0  0  0
   -0.1430   -2.7992    0.7715 C   0  0  0  0  0  0  0  0  0  0  0  0
   -1.2400   -2.0428    1.0524 C   0  0  0  0  0  0  0  0  0  0  0  0
   -1.7345   -1.3160   -0.0526 C   0  0  0  0  0  0  0  0  0  0  0  0
   -2.8230   -0.4248   -0.0617 C   0  0  0  0  0  0  0  0  0  0  0  0
   -3.5724   -0.1698    1.1755 C   0  0  0  0  0  0  0  0  0  0  0  0
   -4.9617   -0.2744    1.2203 C   0  0  0  0  0  0  0  0  0  0  0  0
   -5.6356   -0.2020    2.4216 C   0  0  0  0  0  0  0  0  0  0  0  0
   -4.9583    0.0028    3.6219 C   0  0  0  0  0  0  0  0  0  0  0  0
   -5.8705   -0.0450    5.1315 S   0  0  0  0  0  0  0  0  0  0  0  0
   -4.7003   -0.8706    6.2853 C   0  0  0  0  0  0  0  0  0  0  0  0
   -5.4877   -1.6380    7.3282 C   0  0  0  0  0  0  0  0  0  0  0  0
   -3.5861    0.2206    3.5475 C   0  0  0  0  0  0  0  0  0  0  0  0
   -2.8736    0.5256    4.6563 F   0  0  0  0  0  0  0  0  0  0  0  0
   -2.8960    0.1140    2.3599 C   0  0  0  0  0  0  0  0  0  0  0  0
   -3.1194    0.1493   -1.2842 C   0  0  0  0  0  0  0  0  0  0  0  0
   -2.3513   -0.0644   -2.4574 C   0  0  0  0  0  0  0  0  0  0  0  0
   -1.2407   -0.9296   -2.4341 C   0  0  0  0  0  0  0  0  0  0  0  0
   -0.3705   -1.1016   -3.6008 C   0  0  0  0  0  0  0  0  0  0  0  0
    0.0373   -0.0066   -4.3612 C   0  0  0  0  0  0  0  0  0  0  0  0
    0.8781   -0.1501   -5.4463 C   0  0  0  0  0  0  0  0  0  0  0  0
    1.3372   -1.4050   -5.8304 C   0  0  0  0  0  0  0  0  0  0  0  0
    2.3696   -1.7354   -7.2110 S   0  0  0  0  0  0  0  0  0  0  0  0
    2.4059   -0.1726   -8.1474 C   0  0  0  0  0  0  0  0  0  0  0  0
    1.0956    0.1121   -8.8549 C   0  0  0  0  0  0  0  0  0  0  0  0
    0.9410   -2.4906   -5.0471 C   0  0  0  0  0  0  0  0  0  0  0  0
    0.1100   -2.3610   -3.9597 C   0  0  0  0  0  0  0  0  0  0  0  0
    1.3802   -3.7252   -5.3747 F   0  0  0  0  0  0  0  0  0  0  0  0
   -0.9880   -1.5714   -1.2283 C   0  0  0  0  0  0  0  0  0  0  0  0
    0.3028   -2.7112   -0.9172 S   0  0  0  0  0  0  0  0  0  0  0  0
   -2.8550    0.6734   -3.5562 C   0  0  0  0  0  0  0  0  0  0  0  0
   -3.9317    1.4541   -3.2507 C   0  0  0  0  0  0  0  0  0  0  0  0
   -4.4166    1.2792   -1.5748 S   0  0  0  0  0  0  0  0  0  0  0  0
   -4.5728    2.3747   -4.1253 C   0  0  0  0  0  0  0  0  0  0  0  0
   -4.0645    2.5222   -5.3781 O   0  0  0  0  0  0  0  0  0  0  0  0
   -4.7079    3.5544   -5.9757 C   0  0  0  0  0  0  0  0  0  0  0  0
   -5.6776    4.0476   -5.1300 C   0  0  0  0  0  0  0  0  0  0  0  0
   -5.5967    3.2947   -3.9437 C   0  0  0  0  0  0  0  0  0  0  0  0
   -6.3815    3.4748   -2.8630 O   0  0  0  0  0  0  0  0  0  0  0  0
   -4.3093    3.8636   -7.3183 C   0  0  0  0  0  0  0  0  0  0  0  0
   -4.3243    5.0736   -7.9175 C   0  0  0  0  0  0  0  0  0  0  0  0
   -4.5790    6.3346   -7.3054 C   0  0  0  0  0  0  0  0  0  0  0  0
   -4.6191    6.4739   -5.9585 O   0  0  0  0  0  0  0  0  0  0  0  0
   -4.8532    7.7676   -5.6692 C   0  0  0  0  0  0  0  0  0  0  0  0
   -4.9694    8.4971   -6.8391 C   0  0  0  0  0  0  0  0  0  0  0  0
   -4.7776    7.5853   -7.8893 C   0  0  0  0  0  0  0  0  0  0  0  0
   -4.8098    7.8959   -9.2027 O   0  0  0  0  0  0  0  0  0  0  0  0
   -5.0435    8.1940   -4.3211 C   0  0  0  0  0  0  0  0  0  0  0  0
   -4.7528    7.5366   -3.1768 C   0  0  0  0  0  0  0  0  0  0  0  0
   -3.9798    6.3577   -2.9379 C   0  0  0  0  0  0  0  0  0  0  0  0
   -3.9378    5.7205   -1.7267 C   0  0  0  0  0  0  0  0  0  0  0  0
   -2.9739    4.6896   -1.6357 C   0  0  0  0  0  0  0  0  0  0  0  0
   -2.6521    3.8990   -0.5146 C   0  0  0  0  0  0  0  0  0  0  0  0
   -3.4998    3.8640    0.6791 C   0  0  0  0  0  0  0  0  0  0  0  0
   -2.9726    3.7924    1.9699 C   0  0  0  0  0  0  0  0  0  0  0  0
   -3.7986    3.6843    3.0638 C   0  0  0  0  0  0  0  0  0  0  0  0
   -5.1917    3.6450    2.9431 C   0  0  0  0  0  0  0  0  0  0  0  0
   -6.0563    3.5335    4.4718 S   0  0  0  0  0  0  0  0  0  0  0  0
   -7.8527    3.5551    4.1317 C   0  0  0  0  0  0  0  0  0  0  0  0
   -8.3895    2.2086    3.6901 C   0  0  0  0  0  0  0  0  0  0  0  0
   -5.7023    3.7283    1.6522 C   0  0  0  0  0  0  0  0  0  0  0  0
   -7.0349    3.7068    1.4076 F   0  0  0  0  0  0  0  0  0  0  0  0
   -4.8847    3.8358    0.5463 C   0  0  0  0  0  0  0  0  0  0  0  0
   -1.5207    3.1026   -0.6324 C   0  0  0  0  0  0  0  0  0  0  0  0
   -0.7546    3.0020   -1.8210 C   0  0  0  0  0  0  0  0  0  0  0  0
   -1.1158    3.7499   -2.9558 C   0  0  0  0  0  0  0  0  0  0  0  0
   -0.3228    3.6869   -4.1902 C   0  0  0  0  0  0  0  0  0  0  0  0
    1.0609    3.8611   -4.1587 C   0  0  0  0  0  0  0  0  0  0  0  0
    1.8018    3.8151   -5.3205 C   0  0  0  0  0  0  0  0  0  0  0  0
    1.1980    3.5830   -6.5539 C   0  0  0  0  0  0  0  0  0  0  0  0
    2.2430    3.4965   -7.9841 S   0  0  0  0  0  0  0  0  0  0  0  0
    1.3346    4.4858   -9.2269 C   0  0  0  0  0  0  0  0  0  0  0  0
    1.0579    5.8935   -8.7397 C   0  0  0  0  0  0  0  0  0  0  0  0
   -0.1791    3.3892   -6.5687 C   0  0  0  0  0  0  0  0  0  0  0  0
   -0.9359    3.4575   -5.4175 C   0  0  0  0  0  0  0  0  0  0  0  0
   -0.8228    3.1145   -7.7259 F   0  0  0  0  0  0  0  0  0  0  0  0
   -2.2224    4.5784   -2.8336 C   0  0  0  0  0  0  0  0  0  0  0  0
   -2.8134    5.6759   -4.0556 S   0  0  0  0  0  0  0  0  0  0  0  0
    0.3050    2.0668   -1.6890 C   0  0  0  0  0  0  0  0  0  0  0  0
    0.3652    1.4751   -0.4624 C   0  0  0  0  0  0  0  0  0  0  0  0
   -0.8740    2.0706    0.6126 S   0  0  0  0  0  0  0  0  0  0  0  0
    1.3097    0.5048   -0.0062 C   0  0  0  0  0  0  0  0  0  0  0  0
    2.1387   -0.2673   -0.7613 C   0  0  0  0  0  0  0  0  0  0  0  0
    3.0115   -1.0836    0.0051 C   0  0  0  0  0  0  0  0  0  0  0  0
    3.9496   -2.0085   -0.4707 C   0  0  0  0  0  0  0  0  0  0  0  0
    4.1217   -2.3407   -1.8902 C   0  0  0  0  0  0  0  0  0  0  0  0
    4.3663   -1.3737   -2.8625 C   0  0  0  0  0  0  0  0  0  0  0  0
    4.6393   -1.7415   -4.1626 C   0  0  0  0  0  0  0  0  0  0  0  0
    4.6794   -3.0808   -4.5527 C   0  0  0  0  0  0  0  0  0  0  0  0
    5.2030   -3.4212   -6.1979 S   0  0  0  0  0  0  0  0  0  0  0  0
    4.3298   -4.9709   -6.6518 C   0  0  0  0  0  0  0  0  0  0  0  0
    4.1967   -5.0260   -8.1604 C   0  0  0  0  0  0  0  0  0  0  0  0
    4.3974   -4.0319   -3.5767 C   0  0  0  0  0  0  0  0  0  0  0  0
    4.4167   -5.3542   -3.8629 F   0  0  0  0  0  0  0  0  0  0  0  0
    4.1220   -3.6789   -2.2730 C   0  0  0  0  0  0  0  0  0  0  0  0
    4.7620   -2.6075    0.4825 C   0  0  0  0  0  0  0  0  0  0  0  0
    4.6450   -2.3667    1.8706 C   0  0  0  0  0  0  0  0  0  0  0  0
    3.6077   -1.5502    2.3604 C   0  0  0  0  0  0  0  0  0  0  0  0
    3.3800   -1.4089    3.8022 C   0  0  0  0  0  0  0  0  0  0  0  0
    3.0270   -0.1923    4.3816 C   0  0  0  0  0  0  0  0  0  0  0  0
    2.7772   -0.0807    5.7361 C   0  0  0  0  0  0  0  0  0  0  0  0
    2.8940   -1.1812    6.5759 C   0  0  0  0  0  0  0  0  0  0  0  0
    2.5452   -1.2082    8.3021 S   0  0  0  0  0  0  0  0  0  0  0  0
    2.4219    0.5549    8.7652 C   0  0  0  0  0  0  0  0  0  0  0  0
    3.7705    1.2488    8.7576 C   0  0  0  0  0  0  0  0  0  0  0  0
    3.2780   -2.3898    5.9916 C   0  0  0  0  0  0  0  0  0  0  0  0
    3.5063   -2.5185    4.6416 C   0  0  0  0  0  0  0  0  0  0  0  0
    3.4219   -3.4762    6.7793 F   0  0  0  0  0  0  0  0  0  0  0  0
    2.8342   -0.9032    1.4015 C   0  0  0  0  0  0  0  0  0  0  0  0
    1.5328    0.2211    1.7092 S   0  0  0  0  0  0  0  0  0  0  0  0
    5.7178   -2.9763    2.5879 C   0  0  0  0  0  0  0  0  0  0  0  0
    6.5727   -3.6488    1.7900 C   0  0  0  0  0  0  0  0  0  0  0  0
    6.1348   -3.6199    0.1201 S   0  0  0  0  0  0  0  0  0  0  0  0
    4.3317   -8.0710    7.2158 H   0  0  0  0  0  0  0  0  0  0  0  0
    2.3261   -6.4404    7.5524 H   0  0  0  0  0  0  0  0  0  0  0  0
    0.6214   -2.5996    5.7372 H   0  0  0  0  0  0  0  0  0  0  0  0
   -0.9274   -1.8244    7.4147 H   0  0  0  0  0  0  0  0  0  0  0  0
   -3.0072   -1.2478   10.3931 H   0  0  0  0  0  0  0  0  0  0  0  0
   -2.3306   -1.0238    8.7738 H   0  0  0  0  0  0  0  0  0  0  0  0
   -0.0411   -1.6213    9.7025 H   0  0  0  0  0  0  0  0  0  0  0  0
   -0.7270   -0.2108   10.5227 H   0  0  0  0  0  0  0  0  0  0  0  0
   -0.7659   -1.7975   11.3011 H   0  0  0  0  0  0  0  0  0  0  0  0
   -0.0062   -6.6483    6.9964 H   0  0  0  0  0  0  0  0  0  0  0  0
    2.3888   -6.7287    0.5024 H   0  0  0  0  0  0  0  0  0  0  0  0
    3.8510   -7.3500   -1.3281 H   0  0  0  0  0  0  0  0  0  0  0  0
    6.5712   -8.3343   -3.6193 H   0  0  0  0  0  0  0  0  0  0  0  0
    5.0854   -7.5560   -3.0654 H   0  0  0  0  0  0  0  0  0  0  0  0
    4.6262   -9.6042   -1.6168 H   0  0  0  0  0  0  0  0  0  0  0  0
    6.1004  -10.3391   -2.2454 H   0  0  0  0  0  0  0  0  0  0  0  0
    4.7387  -10.0278   -3.3292 H   0  0  0  0  0  0  0  0  0  0  0  0
    5.7932   -6.1857    3.0468 H   0  0  0  0  0  0  0  0  0  0  0  0
    2.1941   -4.4602    0.6581 H   0  0  0  0  0  0  0  0  0  0  0  0
   -1.6816   -2.0172    2.0315 H   0  0  0  0  0  0  0  0  0  0  0  0
   -5.5137   -0.4754    0.3148 H   0  0  0  0  0  0  0  0  0  0  0  0
   -6.7050   -0.3411    2.4545 H   0  0  0  0  0  0  0  0  0  0  0  0
   -4.0794   -0.1006    6.7420 H   0  0  0  0  0  0  0  0  0  0  0  0
   -4.0816   -1.5410    5.6899 H   0  0  0  0  0  0  0  0  0  0  0  0
   -6.1386   -2.3677    6.8521 H   0  0  0  0  0  0  0  0  0  0  0  0
   -6.1016   -0.9617    7.9187 H   0  0  0  0  0  0  0  0  0  0  0  0
   -4.8067   -2.1652    7.9934 H   0  0  0  0  0  0  0  0  0  0  0  0
   -1.8296    0.2718    2.3731 H   0  0  0  0  0  0  0  0  0  0  0  0
   -0.2932    0.9834   -4.0933 H   0  0  0  0  0  0  0  0  0  0  0  0
    1.1764    0.7321   -5.9890 H   0  0  0  0  0  0  0  0  0  0  0  0
    2.7004    0.6343   -7.4777 H   0  0  0  0  0  0  0  0  0  0  0  0
    3.2082   -0.3297   -8.8684 H   0  0  0  0  0  0  0  0  0  0  0  0
    0.8504   -0.6973   -9.5386 H   0  0  0  0  0  0  0  0  0  0  0  0
    1.1839    1.0353   -9.4235 H   0  0  0  0  0  0  0  0  0  0  0  0
    0.2789    0.2206   -8.1445 H   0  0  0  0  0  0  0  0  0  0  0  0
   -0.1838   -3.2487   -3.4233 H   0  0  0  0  0  0  0  0  0  0  0  0
   -2.4554    0.6232   -4.5512 H   0  0  0  0  0  0  0  0  0  0  0  0
   -6.3708    4.8378   -5.3208 H   0  0  0  0  0  0  0  0  0  0  0  0
   -6.2189    2.7817   -2.2104 H   0  0  0  0  0  0  0  0  0  0  0  0
   -3.9282    3.0183   -7.8749 H   0  0  0  0  0  0  0  0  0  0  0  0
   -4.0647    5.1189   -8.9678 H   0  0  0  0  0  0  0  0  0  0  0  0
   -5.1588    9.5456   -6.9326 H   0  0  0  0  0  0  0  0  0  0  0  0
   -4.6685    7.1027   -9.7323 H   0  0  0  0  0  0  0  0  0  0  0  0
   -5.5306    9.1558   -4.2387 H   0  0  0  0  0  0  0  0  0  0  0  0
   -5.1132    7.9855   -2.2586 H   0  0  0  0  0  0  0  0  0  0  0  0
   -4.5603    6.0183   -0.9023 H   0  0  0  0  0  0  0  0  0  0  0  0
   -1.9070    3.8549    2.1233 H   0  0  0  0  0  0  0  0  0  0  0  0
   -3.3783    3.6322    4.0563 H   0  0  0  0  0  0  0  0  0  0  0  0
   -8.2748    3.8404    5.0961 H   0  0  0  0  0  0  0  0  0  0  0  0
   -8.0595    4.3418    3.4103 H   0  0  0  0  0  0  0  0  0  0  0  0
   -9.4734    2.2595    3.6101 H   0  0  0  0  0  0  0  0  0  0  0  0
   -7.9866    1.9291    2.7208 H   0  0  0  0  0  0  0  0  0  0  0  0
   -8.1235    1.4407    4.4127 H   0  0  0  0  0  0  0  0  0  0  0  0
   -5.3541    3.8825   -0.4229 H   0  0  0  0  0  0  0  0  0  0  0  0
    1.5516    4.0670   -3.2199 H   0  0  0  0  0  0  0  0  0  0  0  0
    2.8703    3.9639   -5.2939 H   0  0  0  0  0  0  0  0  0  0  0  0
    0.4198    3.9608   -9.4947 H   0  0  0  0  0  0  0  0  0  0  0  0
    2.0079    4.4894  -10.0843 H   0  0  0  0  0  0  0  0  0  0  0  0
    1.9827    6.3845   -8.4435 H   0  0  0  0  0  0  0  0  0  0  0  0
    0.3820    5.8843   -7.8860 H   0  0  0  0  0  0  0  0  0  0  0  0
    0.5961    6.4722   -9.5372 H   0  0  0  0  0  0  0  0  0  0  0  0
   -1.9972    3.2928   -5.4883 H   0  0  0  0  0  0  0  0  0  0  0  0
    1.0063    1.8423   -2.4706 H   0  0  0  0  0  0  0  0  0  0  0  0
    2.1183   -0.2759   -1.8359 H   0  0  0  0  0  0  0  0  0  0  0  0
    4.3860   -0.3302   -2.5866 H   0  0  0  0  0  0  0  0  0  0  0  0
    4.8556   -0.9913   -4.9075 H   0  0  0  0  0  0  0  0  0  0  0  0
    3.3526   -4.9386   -6.1770 H   0  0  0  0  0  0  0  0  0  0  0  0
    4.9067   -5.8135   -6.2726 H   0  0  0  0  0  0  0  0  0  0  0  0
    3.6194   -4.1756   -8.5151 H   0  0  0  0  0  0  0  0  0  0  0  0
    3.6865   -5.9422   -8.4493 H   0  0  0  0  0  0  0  0  0  0  0  0
    5.1757   -5.0058   -8.6342 H   0  0  0  0  0  0  0  0  0  0  0  0
    3.9274   -4.4620   -1.5556 H   0  0  0  0  0  0  0  0  0  0  0  0
    2.9606    0.6946    3.7719 H   0  0  0  0  0  0  0  0  0  0  0  0
    2.4856    0.8795    6.1288 H   0  0  0  0  0  0  0  0  0  0  0  0
    2.0095    0.5236    9.7737 H   0  0  0  0  0  0  0  0  0  0  0  0
    1.6990    1.0373    8.1087 H   0  0  0  0  0  0  0  0  0  0  0  0
    4.4512    0.7509    9.4441 H   0  0  0  0  0  0  0  0  0  0  0  0
    3.6556    2.2845    9.0715 H   0  0  0  0  0  0  0  0  0  0  0  0
    4.2142    1.2335    7.7645 H   0  0  0  0  0  0  0  0  0  0  0  0
    3.7588   -3.4898    4.2493 H   0  0  0  0  0  0  0  0  0  0  0  0
    5.8641   -2.8700    3.6472 H   0  0  0  0  0  0  0  0  0  0  0  0
    7.4631   -4.1752    2.0736 H   0  0  0  0  0  0  0  0  0  0  0  0
  1  2  2  0  0  0  0
  2  3  1  0  0  0  0
  3  4  2  0  0  0  0
  4  5  1  0  0  0  0
  5  6  2  0  0  0  0
  6  7  1  0  0  0  0
  7  8  2  0  0  0  0
  8  9  1  0  0  0  0
  9 10  1  0  0  0  0
 10 11  1  0  0  0  0
  8 12  1  0  0  0  0
 12 13  1  0  0  0  0
 12 14  2  0  0  0  0
  4 15  1  0  0  0  0
 15 16  2  0  0  0  0
 16 17  1  0  0  0  0
 17 18  1  0  0  0  0
 18 19  2  0  0  0  0
 19 20  1  0  0  0  0
 20 21  2  0  0  0  0
 21 22  1  0  0  0  0
 22 23  1  0  0  0  0
 23 24  1  0  0  0  0
 21 25  1  0  0  0  0
 25 26  2  0  0  0  0
 25 27  1  0  0  0  0
 17 28  2  0  0  0  0
 28 29  1  0  0  0  0
 16 30  1  0  0  0  0
 30 31  2  0  0  0  0
 31 32  1  0  0  0  0
 31 33  1  0  0  0  0
 33 34  2  0  0  0  0
 34 35  1  0  0  0  0
 35 36  2  0  0  0  0
 36 37  1  0  0  0  0
 37 38  2  0  0  0  0
 38 39  1  0  0  0  0
 39 40  2  0  0  0  0
 40 41  1  0  0  0  0
 41 42  1  0  0  0  0
 42 43  1  0  0  0  0
 40 44  1  0  0  0  0
 44 45  1  0  0  0  0
 44 46  2  0  0  0  0
 36 47  1  0  0  0  0
 47 48  2  0  0  0  0
 48 49  1  0  0  0  0
 49 50  1  0  0  0  0
 50 51  2  0  0  0  0
 51 52  1  0  0  0  0
 52 53  2  0  0  0  0
 53 54  1  0  0  0  0
 54 55  1  0  0  0  0
 55 56  1  0  0  0  0
 53 57  1  0  0  0  0
 57 58  2  0  0  0  0
 57 59  1  0  0  0  0
 49 60  2  0  0  0  0
 60 61  1  0  0  0  0
 48 62  1  0  0  0  0
 62 63  2  0  0  0  0
 63 64  1  0  0  0  0
 63 65  1  0  0  0  0
 65 66  1  0  0  0  0
 66 67  1  0  0  0  0
 67 68  2  0  0  0  0
 68 69  1  0  0  0  0
 69 70  1  0  0  0  0
 67 71  1  0  0  0  0
 71 72  2  0  0  0  0
 72 73  1  0  0  0  0
 73 74  1  0  0  0  0
 74 75  1  0  0  0  0
 75 76  2  0  0  0  0
 76 77  1  0  0  0  0
 77 78  1  0  0  0  0
 75 79  1  0  0  0  0
 79 80  2  0  0  0  0
 80 81  1  0  0  0  0
 81 82  2  0  0  0  0
 82 83  1  0  0  0  0
 83 84  2  0  0  0  0
 84 85  1  0  0  0  0
 85 86  2  0  0  0  0
 86 87  1  0  0  0  0
 87 88  2  0  0  0  0
 88 89  1  0  0  0  0
 89 90  1  0  0  0  0
 90 91  1  0  0  0  0
 88 92  1  0  0  0  0
 92 93  1  0  0  0  0
 92 94  2  0  0  0  0
 84 95  1  0  0  0  0
 95 96  2  0  0  0  0
 96 97  1  0  0  0  0
 97 98  1  0  0  0  0
 98 99  2  0  0  0  0
 99100  1  0  0  0  0
100101  2  0  0  0  0
101102  1  0  0  0  0
102103  1  0  0  0  0
103104  1  0  0  0  0
101105  1  0  0  0  0
105106  2  0  0  0  0
105107  1  0  0  0  0
 97108  2  0  0  0  0
108109  1  0  0  0  0
 96110  1  0  0  0  0
110111  2  0  0  0  0
111112  1  0  0  0  0
111113  1  0  0  0  0
113114  2  0  0  0  0
114115  1  0  0  0  0
115116  2  0  0  0  0
116117  1  0  0  0  0
117118  2  0  0  0  0
118119  1  0  0  0  0
119120  2  0  0  0  0
120121  1  0  0  0  0
121122  1  0  0  0  0
122123  1  0  0  0  0
120124  1  0  0  0  0
124125  1  0  0  0  0
124126  2  0  0  0  0
116127  1  0  0  0  0
127128  2  0  0  0  0
128129  1  0  0  0  0
129130  1  0  0  0  0
130131  2  0  0  0  0
131132  1  0  0  0  0
132133  2  0  0  0  0
133134  1  0  0  0  0
134135  1  0  0  0  0
135136  1  0  0  0  0
133137  1  0  0  0  0
137138  2  0  0  0  0
137139  1  0  0  0  0
129140  2  0  0  0  0
140141  1  0  0  0  0
128142  1  0  0  0  0
142143  2  0  0  0  0
143144  1  0  0  0  0
 29  1  1  0  0  0  0
 61 33  1  0  0  0  0
 69 65  2  0  0  0  0
 77 73  2  0  0  0  0
109 81  1  0  0  0  0
141113  1  0  0  0  0
 28  3  1  0  0  0  0
 60 35  1  0  0  0  0
108 83  1  0  0  0  0
140115  1  0  0  0  0
 14  5  1  0  0  0  0
 32 15  1  0  0  0  0
 46 37  1  0  0  0  0
 64 47  1  0  0  0  0
 94 85  1  0  0  0  0
112 95  1  0  0  0  0
126117  1  0  0  0  0
144127  1  0  0  0  0
 26 18  1  0  0  0  0
 58 50  1  0  0  0  0
106 98  1  0  0  0  0
138130  1  0  0  0  0
  1145  1  0  0  0  0
  2146  1  0  0  0  0
  6147  1  0  0  0  0
  7148  1  0  0  0  0
 10149  1  0  0  0  0
 10150  1  0  0  0  0
 11151  1  0  0  0  0
 11152  1  0  0  0  0
 11153  1  0  0  0  0
 14154  1  0  0  0  0
 19155  1  0  0  0  0
 20156  1  0  0  0  0
 23157  1  0  0  0  0
 23158  1  0  0  0  0
 24159  1  0  0  0  0
 24160  1  0  0  0  0
 24161  1  0  0  0  0
 26162  1  0  0  0  0
 30163  1  0  0  0  0
 34164  1  0  0  0  0
 38165  1  0  0  0  0
 39166  1  0  0  0  0
 42167  1  0  0  0  0
 42168  1  0  0  0  0
 43169  1  0  0  0  0
 43170  1  0  0  0  0
 43171  1  0  0  0  0
 46172  1  0  0  0  0
 51173  1  0  0  0  0
 52174  1  0  0  0  0
 55175  1  0  0  0  0
 55176  1  0  0  0  0
 56177  1  0  0  0  0
 56178  1  0  0  0  0
 56179  1  0  0  0  0
 58180  1  0  0  0  0
 62181  1  0  0  0  0
 68182  1  0  0  0  0
 70183  1  0  0  0  0
 71184  1  0  0  0  0
 72185  1  0  0  0  0
 76186  1  0  0  0  0
 78187  1  0  0  0  0
 79188  1  0  0  0  0
 80189  1  0  0  0  0
 82190  1  0  0  0  0
 86191  1  0  0  0  0
 87192  1  0  0  0  0
 90193  1  0  0  0  0
 90194  1  0  0  0  0
 91195  1  0  0  0  0
 91196  1  0  0  0  0
 91197  1  0  0  0  0
 94198  1  0  0  0  0
 99199  1  0  0  0  0
100200  1  0  0  0  0
103201  1  0  0  0  0
103202  1  0  0  0  0
104203  1  0  0  0  0
104204  1  0  0  0  0
104205  1  0  0  0  0
106206  1  0  0  0  0
110207  1  0  0  0  0
114208  1  0  0  0  0
118209  1  0  0  0  0
119210  1  0  0  0  0
122211  1  0  0  0  0
122212  1  0  0  0  0
123213  1  0  0  0  0
123214  1  0  0  0  0
123215  1  0  0  0  0
126216  1  0  0  0  0
131217  1  0  0  0  0
132218  1  0  0  0  0
135219  1  0  0  0  0
135220  1  0  0  0  0
136221  1  0  0  0  0
136222  1  0  0  0  0
136223  1  0  0  0  0
138224  1  0  0  0  0
142225  1  0  0  0  0
143226  1  0  0  0  0
M  END
