226

C          3.84140       -7.48640        6.46210
C          2.79790       -6.64740        6.61020
C          2.40430       -6.03070        5.38620
C          1.35500       -5.12660        5.17080
C          0.44610       -4.67950        6.23350
C          0.15110       -3.32630        6.38060
C         -0.72420       -2.88050        7.34910
C         -1.34160       -3.77520        8.21350
S         -2.50640       -3.32820        9.45980
C         -2.20160       -1.54530        9.72150
C         -0.84690       -1.27890       10.34880
C         -1.04760       -5.12950        8.05170
F         -1.64460       -6.03160        8.85810
C         -0.17430       -5.58680        7.08930
C          1.21020       -4.65310        3.87560
C          2.04160       -5.03060        2.79190
C          3.08640       -5.94770        3.00600
C          3.96390       -6.38040        1.91380
C          3.45640       -6.72830        0.66340
C          4.28820       -7.10760       -0.37290
C          5.66660       -7.16990       -0.19630
S          6.84810       -7.59190       -1.42670
C          5.85660       -8.27480       -2.79830
C          5.29410       -9.64600       -2.47460
C          6.15930       -6.84110        1.06790
C          5.34340       -6.45220        2.10430
F          7.49110       -6.87990        1.28280
C          3.23880       -6.41760        4.30810
S          4.43120       -7.57810        4.83890
C          1.66480       -4.37110        1.58950
C          0.56300       -3.58430        1.72620
S         -0.04190       -3.55790        3.36990
C         -0.14300       -2.79920        0.77150
C         -1.24000       -2.04280        1.05240
C         -1.73450       -1.31600       -0.05260
C         -2.82300       -0.42480       -0.06170
C         -3.57240       -0.16980        1.17550
C         -4.96170       -0.27440        1.22030
C         -5.63560       -0.20200        2.42160
C         -4.95830        0.00280        3.62190
S         -5.87050       -0.04500        5.13150
C         -4.70030       -0.87060        6.28530
C         -5.48770       -1.63800        7.32820
C         -3.58610        0.22060        3.54750
F         -2.87360        0.52560        4.65630
C         -2.89600        0.11400        2.35990
C         -3.11940        0.14930       -1.28420
C         -2.35130       -0.06440       -2.45740
C         -1.24070       -0.92960       -2.43410
C         -0.37050       -1.10160       -3.60080
C          0.03730       -0.00660       -4.36120
C          0.87810       -0.15010       -5.44630
C          1.33720       -1.40500       -5.83040
S          2.36960       -1.73540       -7.21100
C          2.40590       -0.17260       -8.14740
C          1.09560        0.11210       -8.85490
C          0.94100       -2.49060       -5.04710
C          0.11000       -2.36100       -3.95970
F          1.38020       -3.72520       -5.37470
C         -0.98800       -1.57140       -1.22830
S          0.30280       -2.71120       -0.91720
C         -2.85500        0.67340       -3.55620
C         -3.93170        1.45410       -3.25070
S         -4.41660        1.27920       -1.57480
C         -4.57280        2.37470       -4.12530
O         -4.06450        2.52220       -5.37810
C         -4.70790        3.55440       -5.97570
C         -5.67760        4.04760       -5.13000
C         -5.59670        3.29470       -3.94370
O         -6.38150        3.47480       -2.86300
C         -4.30930        3.86360       -7.31830
C         -4.32430        5.07360       -7.91750
C         -4.57900        6.33460       -7.30540
O         -4.61910        6.47390       -5.95850
C         -4.85320        7.76760       -5.66920
C         -4.96940        8.49710       -6.83910
C         -4.77760        7.58530       -7.88930
O         -4.80980        7.89590       -9.20270
C         -5.04350        8.19400       -4.32110
C         -4.75280        7.53660       -3.17680
C         -3.97980        6.35770       -2.93790
C         -3.93780        5.72050       -1.72670
C         -2.97390        4.68960       -1.63570
C         -2.65210        3.89900       -0.51460
C         -3.49980        3.86400        0.67910
C         -2.97260        3.79240        1.96990
C         -3.79860        3.68430        3.06380
C         -5.19170        3.64500        2.94310
S         -6.05630        3.53350        4.47180
C         -7.85270        3.55510        4.13170
C         -8.38950        2.20860        3.69010
C         -5.70230        3.72830        1.65220
F         -7.03490        3.70680        1.40760
C         -4.88470        3.83580        0.54630
C         -1.52070        3.10260       -0.63240
C         -0.75460        3.00200       -1.82100
C         -1.11580        3.74990       -2.95580
C         -0.32280        3.68690       -4.19020
C          1.06090        3.86110       -4.15870
C          1.80180        3.81510       -5.32050
C          1.19800        3.58300       -6.55390
S          2.24300        3.49650       -7.98410
C          1.33460        4.48580       -9.22690
C          1.05790        5.89350       -8.73970
C         -0.17910        3.38920       -6.56870
C         -0.93590        3.45750       -5.41750
F         -0.82280        3.11450       -7.72590
C         -2.22240        4.57840       -2.83360
S         -2.81340        5.67590       -4.05560
C          0.30500        2.06680       -1.68900
C          0.36520        1.47510       -0.46240
S         -0.87400        2.07060        0.61260
C          1.30970        0.50480       -0.00620
C          2.13870       -0.26730       -0.76130
C          3.01150       -1.08360        0.00510
C          3.94960       -2.00850       -0.47070
C          4.12170       -2.34070       -1.89020
C          4.36630       -1.37370       -2.86250
C          4.63930       -1.74150       -4.16260
C          4.67940       -3.08080       -4.55270
S          5.20300       -3.42120       -6.19790
C          4.32980       -4.97090       -6.65180
C          4.19670       -5.02600       -8.16040
C          4.39740       -4.03190       -3.57670
F          4.41670       -5.35420       -3.86290
C          4.12200       -3.67890       -2.27300
C          4.76200       -2.60750        0.48250
C          4.64500       -2.36670        1.87060
C          3.60770       -1.55020        2.36040
C          3.38000       -1.40890        3.80220
C          3.02700       -0.19230        4.38160
C          2.77720       -0.08070        5.73610
C          2.89400       -1.18120        6.57590
S          2.54520       -1.20820        8.30210
C          2.42190        0.55490        8.76520
C          3.77050        1.24880        8.75760
C          3.27800       -2.38980        5.99160
C          3.50630       -2.51850        4.64160
F          3.42190       -3.47620        6.77930
C          2.83420       -0.90320        1.40150
S          1.53280        0.22110        1.70920
C          5.71780       -2.97630        2.58790
C          6.57270       -3.64880        1.79000
S          6.13480       -3.61990        0.12010
H          4.33170       -8.07100        7.21580
H          2.32610       -6.44040        7.55240
H          0.62140       -2.59960        5.73720
H         -0.92740       -1.82440        7.41470
H         -3.00720       -1.24780       10.39310
H         -2.33060       -1.02380        8.77380
H         -0.04110       -1.62130        9.70250
H         -0.72700       -0.21080       10.52270
H         -0.76590       -1.79750       11.30110
H         -0.00620       -6.64830        6.99640
H          2.38880       -6.72870        0.50240
H          3.85100       -7.35000       -1.32810
H          6.57120       -8.33430       -3.61930
H          5.08540       -7.55600       -3.06540
H          4.62620       -9.60420       -1.61680
H          6.10040      -10.33910       -2.24540
H          4.73870      -10.02780       -3.32920
H          5.79320       -6.18570        3.04680
H          2.19410       -4.46020        0.65810
H         -1.68160       -2.01720        2.03150
H         -5.51370       -0.47540        0.31480
H         -6.70500       -0.34110        2.45450
H         -4.07940       -0.10060        6.74200
H         -4.08160       -1.54100        5.68990
H         -6.13860       -2.36770        6.85210
H         -6.10160       -0.96170        7.91870
H         -4.80670       -2.16520        7.99340
H         -1.82960        0.27180        2.37310
H         -0.29320        0.98340       -4.09330
H          1.17640        0.73210       -5.98900
H          2.70040        0.63430       -7.47770
H          3.20820       -0.32970       -8.86840
H          0.85040       -0.69730       -9.53860
H          1.18390        1.03530       -9.42350
H          0.27890        0.22060       -8.14450
H         -0.18380       -3.24870       -3.42330
H         -2.45540        0.62320       -4.55120
H         -6.37080        4.83780       -5.32080
H         -6.21890        2.78170       -2.21040
H         -3.92820        3.01830       -7.87490
H         -4.06470        5.11890       -8.96780
H         -5.15880        9.54560       -6.93260
H         -4.66850        7.10270       -9.73230
H         -5.53060        9.15580       -4.23870
H         -5.11320        7.98550       -2.25860
H         -4.56030        6.01830       -0.90230
H         -1.90700        3.85490        2.12330
H         -3.37830        3.63220        4.05630
H         -8.27480        3.84040        5.09610
H         -8.05950        4.34180        3.41030
H         -9.47340        2.25950        3.61010
H         -7.98660        1.92910        2.72080
H         -8.12350        1.44070        4.41270
H         -5.35410        3.88250       -0.42290
H          1.55160        4.06700       -3.21990
H          2.87030        3.96390       -5.29390
H          0.41980        3.96080       -9.49470
H          2.00790        4.48940      -10.08430
H          1.98270        6.38450       -8.44350
H          0.38200        5.88430       -7.88600
H          0.59610        6.47220       -9.53720
H         -1.99720        3.29280       -5.48830
H          1.00630        1.84230       -2.47060
H          2.11830       -0.27590       -1.83590
H          4.38600       -0.33020       -2.58660
H          4.85560       -0.99130       -4.90750
H          3.35260       -4.93860       -6.17700
H          4.90670       -5.81350       -6.27260
H          3.61940       -4.17560       -8.51510
H          3.68650       -5.94220       -8.44930
H          5.17570       -5.00580       -8.63420
H          3.92740       -4.46200       -1.55560
H          2.96060        0.69460        3.77190
H          2.48560        0.87950        6.12880
H          2.00950        0.52360        9.77370
H          1.69900        1.03730        8.10870
H          4.45120        0.75090        9.44410
H          3.65560        2.28450        9.07150
H          4.21420        1.23350        7.76450
H          3.75880       -3.48980        4.24930
H          5.86410       -2.87000        3.64720
H          7.46310       -4.17520        2.07360
