200

C          7.14250       -4.57380        1.55250
C          6.98640       -3.35860        0.98950
C          7.60460       -2.31810        1.74180
C          7.60060       -0.93850        1.48400
C          6.78950       -0.34060        0.43610
S          7.43620        0.85250       -0.64870
C          5.89710        1.13750       -1.38120
C          5.72110        2.18290       -2.42630
C          5.31220        3.51350       -1.78870
C          4.94520        0.34910       -0.80660
Cl         3.29390        0.36290       -1.26980
C          5.44550       -0.49080        0.22280
Cl         4.41980       -1.49250        1.16100
C          8.33100       -0.13650        2.35220
C          8.95850       -0.63310        3.51850
C          8.92300       -2.00810        3.80400
C          9.49600       -2.52430        5.03610
S          9.03720       -1.84540        6.57430
C         10.07020       -2.91970        7.45510
C         10.15740       -2.85490        8.94030
C         10.31770       -1.42160        9.44250
C         10.72100       -3.75050        6.59390
C         10.39760       -3.53230        5.22520
Cl        11.15050       -4.40300        3.95670
Cl        11.84030       -4.95600        7.08440
C          8.26740       -2.82440        2.88770
S          8.05310       -4.54540        3.02240
C          9.53250        0.40630        4.29440
C          9.34740        1.64330        3.75510
S          8.48840        1.59120        2.23110
C          9.64340        2.91410        4.32260
S          9.71950        4.35440        3.32460
C          9.71370        5.44160        4.70670
C          9.78910        4.69290        5.84940
C          9.73100        3.28230        5.64020
N          9.68110        2.69780        6.87850
C          9.68550        3.66950        7.84510
S          9.62680        3.42040        9.45950
N          9.76690        4.88260        7.21130
C          9.55440        6.86620        4.52510
C          8.56750        7.42980        3.80480
C          7.43530        6.75240        3.23420
C          6.91800        5.52680        3.53630
C          5.74700        5.18820        2.82260
C          5.02700        3.97510        2.85510
C          5.38360        2.86970        3.72600
S          5.25380        1.24130        3.11210
C          5.81290        0.53490        4.58160
C          5.82700       -0.94000        4.77160
C          4.48060       -1.42310        5.31700
C          6.08760        1.51140        5.49090
Cl         6.69700        1.19520        7.06470
C          5.82860        2.82830        5.02440
Cl         5.92050        4.15490        6.11720
C          3.97240        3.86310        1.94980
C          3.58450        4.91040        1.07830
C          4.28680        6.12830        1.07150
C          3.90500        7.21610        0.18670
S          3.75280        6.98080       -1.53080
C          3.30870        8.63130       -1.80000
C          3.06370        9.15670       -3.17130
C          4.34710        9.73600       -3.77160
C          3.29200        9.31370       -0.62060
C          3.62770        8.51620        0.50670
Cl         3.59520        9.12820        2.10660
Cl         2.88780       10.97550       -0.48690
C          5.36420        6.23090        1.93940
S          6.45680        7.57910        2.03840
C          2.45170        4.57030        0.30170
C          1.98750        3.30910        0.54010
S          2.93330        2.47900        1.75300
C          0.86900        2.67370       -0.07760
C          0.05170        3.20730       -1.03330
C         -0.99840        2.34520       -1.42180
C         -1.99670        2.57820       -2.38700
C         -2.07060        3.84320       -3.09850
S         -2.07740        5.35680       -2.23900
C         -2.17310        6.28040       -3.69920
C         -2.14620        7.76860       -3.66840
C         -0.71400        8.28430       -3.50440
C         -2.19540        5.45180       -4.78080
Cl        -2.27650        5.99810       -6.40580
C         -2.14430        4.07130       -4.44500
Cl        -2.08230        2.84460       -5.64040
C         -2.90290        1.55190       -2.60830
C         -2.84090        0.30430       -1.93750
C         -1.83720        0.06980       -0.98140
C         -1.73130       -1.20810       -0.29800
S         -1.62780       -2.69270       -1.19960
C         -1.48280       -3.64810        0.23600
C         -1.39980       -5.13260        0.16540
C         -2.78240       -5.74730       -0.06340
C         -1.52490       -2.85030        1.34000
C         -1.65860       -1.46690        1.04250
Cl        -1.80730       -0.27720        2.26670
Cl        -1.42280       -3.43560        2.94980
C         -0.94510        1.10610       -0.73540
S          0.38850        1.05760        0.37620
C         -3.90450       -0.55200       -2.30700
C         -4.76320        0.00200       -3.21260
S         -4.28330        1.62800       -3.66580
C         -5.92860       -0.58070       -3.77010
S         -6.41690       -2.21880       -3.36500
C         -7.85790       -2.16470       -4.37410
C         -7.91570       -0.92620       -4.97580
C         -6.84750       -0.05200       -4.64680
N         -7.06320        1.11670       -5.33070
C         -8.21290        1.00950       -6.06860
S         -8.85730        2.15810       -7.03730
N         -8.72780       -0.24220       -5.84520
C         -8.75680       -3.25400       -4.48830
C         -8.57070       -4.45230       -3.89070
C         -9.46220       -5.55900       -3.97740
C        -10.68100       -5.65520       -4.59040
C        -11.29490       -6.92120       -4.44200
C        -12.55900       -7.33230       -4.89880
C        -13.46050       -6.40010       -5.55430
S        -14.18220       -6.75680       -7.09470
C        -15.03750       -5.25330       -7.13000
C        -15.96450       -4.91920       -8.24580
C        -17.35020       -5.51970       -7.99610
C        -14.77930       -4.53360       -6.00140
Cl       -15.45780       -2.99110       -5.67220
C        -13.88170       -5.17730       -5.10850
Cl       -13.45300       -4.50340       -3.58770
C        -12.91450       -8.65520       -4.66710
C        -12.08370       -9.56690       -3.97440
C        -10.83230       -9.15050       -3.49420
C         -9.95210      -10.05670       -2.77170
S        -10.47660      -10.87840       -1.33190
C         -8.94470      -11.65520       -1.12160
C         -8.67640      -12.53740        0.04740
C         -8.15200      -11.72630        1.23470
C         -8.08650      -11.28380       -2.11280
C         -8.65420      -10.38090       -3.05170
Cl        -7.80130       -9.83500       -4.43430
Cl        -6.47260      -11.85170       -2.24150
C        -10.46900       -7.83200       -3.73510
S         -9.00410       -7.06470       -3.20330
C        -12.68750      -10.85420       -3.87290
C        -13.91080      -10.90410       -4.43800
S        -14.41590       -9.40360       -5.13470
H          6.78220       -5.51790        1.19360
H          6.46590       -3.18870        0.06550
H          4.94650        1.86240       -3.12570
H          6.65730        2.30980       -2.97140
H          6.05570        3.83030       -1.06090
H          5.21730        4.28370       -2.54900
H          4.35570        3.40970       -1.28410
H          9.25010       -3.28660        9.37360
H         11.00470       -3.46480        9.25880
H         11.21220       -0.96730        9.02290
H          9.45590       -0.82090        9.16000
H         10.40210       -1.41150       10.52550
H         10.07730        0.23870        5.20420
H          9.53040        1.72380        7.08290
H          9.77300        5.75770        7.70650
H         10.28350        7.50410        5.00850
H          8.57900        8.50190        3.66320
H          7.35100        4.88010        4.26860
H          6.02090       -1.42680        3.81580
H          6.62250       -1.20190        5.47190
H          4.50200       -2.50110        5.45100
H          3.68210       -1.17320        4.62250
H          4.26840       -0.95600        6.27520
H          2.69420        8.35070       -3.80680
H          2.30310        9.93800       -3.11730
H          4.71850       10.54840       -3.15260
H          5.11470        8.96860       -3.83540
H          4.15190       10.11920       -4.76940
H          1.99650        5.24120       -0.40170
H          0.20010        4.18560       -1.44870
H         -2.75730        8.12710       -2.83820
H         -2.56740        8.14530       -4.60190
H         -0.28450        7.92150       -2.57330
H         -0.70910        9.37060       -3.49000
H         -0.09530        7.94310       -4.33060
H         -0.73600       -5.42120       -0.65180
H         -0.98220       -5.50310        1.10310
H         -2.70630       -6.83020       -0.11020
H         -3.45340       -5.48000        0.74910
H         -3.20600       -5.38630       -0.99780
H         -4.04850       -1.54010       -1.91000
H         -6.48500        1.94040       -5.32360
H         -9.57850       -0.56480       -6.27350
H         -9.63000       -3.07890       -5.10150
H         -7.67860       -4.60190       -3.29660
H        -11.13090       -4.84920       -5.13870
H        -15.56240       -5.31010       -9.18180
H        -16.04440       -3.83340       -8.32390
H        -17.76970       -5.12750       -7.07310
H        -18.01820       -5.27080       -8.81600
H        -17.28250       -6.60190       -7.91490
H         -9.59630      -13.04970        0.33380
H         -7.93350      -13.28390       -0.24030
H         -7.22830      -11.22030        0.96590
H         -8.88330      -10.97950        1.53440
H         -7.95740      -12.38310        2.07820
H        -12.21520      -11.69430       -3.39810
H        -14.57380      -11.74470       -4.49910
