298

C         11.21050        3.82980        5.33420
C         11.97450        4.93780        5.09350
F         13.06210        5.16980        5.84270
C         11.62730        5.89460        4.11110
F         12.35440        7.01500        4.02500
C         10.53860        5.70270        3.29800
C          9.80010        4.49800        3.45920
N          8.87010        4.15470        2.56150
C          8.05660        3.15710        2.79700
C          7.17660        2.79280        1.68310
C          6.79270        1.48500        1.40430
C          5.95920        1.19670        0.33760
C          5.46970        2.20940       -0.48420
O          4.62860        2.05460       -1.53220
C          4.19340        0.75410       -1.88380
C          3.26840        0.88930       -3.08270
C          5.88620        3.51800       -0.20370
C          6.72810        3.81150        0.83940
F          5.42980        4.52170       -0.98490
C          8.08990        2.52390        4.08980
N          9.14700        2.69410        4.85250
C         10.06420        3.61970        4.54330
C          6.98240        1.77460        4.67750
C          7.20660        0.99370        5.81060
C          6.17510        0.35070        6.46390
C          4.86220        0.46440        6.01060
O          3.75890       -0.07610        6.57220
C          3.87940       -0.87090        7.73820
C          4.34100       -2.29190        7.43260
C          4.65700        1.24730        4.86680
F          3.39220        1.39220        4.40490
C          5.67220        1.90100        4.21360
C         10.01240        6.63470        2.29600
C         10.71730        7.09600        1.20860
F         12.03400        6.87390        1.11660
C         10.06680        7.68230        0.10470
F         10.80970        8.01330       -0.96120
C          8.69780        7.83360        0.05800
C          7.95630        7.46750        1.22180
N          6.61680        7.58470        1.23820
C          5.92330        7.09550        2.23730
C          4.46940        7.29990        2.14350
C          3.79250        6.89400        0.99970
C          2.44380        7.15440        0.83880
C          1.73720        7.86500        1.80360
O          0.45290        8.27850        1.71530
C         -0.30990        7.96150        0.56660
C         -0.84740        6.53480        0.60430
C          2.43170        8.23470        2.96670
C          3.76740        7.96520        3.14720
F          1.76600        8.90350        3.92880
C          6.57950        6.43180        3.32430
N          7.89340        6.40390        3.35870
C          8.61020        6.87280        2.32660
C          5.90020        5.68300        4.38180
C          4.61040        5.17460        4.24850
C          4.01770        4.43810        5.25600
C          4.70770        4.14000        6.42790
O          4.25010        3.40380        7.46110
C          2.87470        3.06470        7.53040
C          2.00010        4.26240        7.88370
C          6.02600        4.61480        6.52760
F          6.73540        4.31230        7.63350
C          6.61180        5.37280        5.54550
C          7.90920        8.02300       -1.14760
C          6.71810        8.67390       -1.22420
C          5.83350        8.12780       -2.19150
C          4.44040        8.30570       -2.27680
C          3.67300        9.34290       -1.57560
C          2.62730        9.98120       -2.24910
C          1.80310       10.87170       -1.59970
C          1.97950       11.17970       -0.24950
S          0.82620       12.31270        0.45650
C          0.65170       11.82370        2.21720
C          1.41410       12.73100        3.16110
C          3.06360       10.58850        0.38950
F          3.35320       10.87130        1.67990
C          3.88990        9.68280       -0.24540
C          3.75460        7.33460       -2.99770
C          4.38510        6.32650       -3.76150
C          5.78310        6.22620       -3.77200
C          6.44930        5.13820       -4.50230
C          6.10950        3.81050       -4.25340
C          6.66180        2.78760       -4.99720
C          7.55980        3.05640       -6.02440
S          8.25220        1.82260       -7.07860
C          6.95200        0.53410       -7.10790
C          5.64520        1.04250       -7.68480
C          7.94150        4.38430       -6.21480
C          7.40740        5.41590       -5.47160
F          8.84120        4.67910       -7.17200
C          6.46260        7.09270       -2.93350
S          8.11630        6.85340       -2.44310
C          3.46110        5.37050       -4.25960
C          2.20360        5.54050       -3.77290
S          2.03830        7.02460       -2.85600
C          1.20940        4.51200       -3.68400
C          0.57580        4.16650       -2.52990
C         -0.08400        2.91500       -2.59850
C         -0.70140        2.21720       -1.54650
C         -0.52040        2.65880       -0.15830
C          0.76450        2.97650        0.28970
C          0.98800        3.33230        1.60160
C         -0.05830        3.39470        2.51890
S          0.32750        3.89240        4.17160
C         -0.60410        2.69240        5.19390
C         -0.20540        1.26240        4.88930
C         -1.33690        3.10100        2.05430
F         -2.40260        3.18480        2.87840
C         -1.57260        2.72060        0.74730
C         -1.34190        1.03460       -1.88510
C         -1.30400        0.49120       -3.19440
C         -0.60400        1.14480       -4.22240
C         -0.49070        0.54840       -5.55840
C         -1.62000        0.13360       -6.25740
C         -1.51450       -0.45830       -7.50090
C         -0.27110       -0.67080       -8.08680
S          0.00770       -1.42460       -9.65270
C         -1.61030       -2.14450      -10.09940
C         -1.94900       -3.36510       -9.26520
C          0.85070       -0.22910       -7.38210
C          0.75910        0.37350       -6.14860
F          2.07710       -0.41060       -7.91640
C         -0.00610        2.35060       -3.89490
S          0.95690        3.34490       -4.96210
C         -1.93970       -0.77310       -3.25690
C         -2.47500       -1.17970       -2.07230
S         -2.19970       -0.01900       -0.78770
C         -3.18700       -2.39250       -1.83660
C         -3.92230       -2.75970       -0.75100
C         -4.51690       -4.04200       -0.87760
C         -5.33890       -4.71190        0.04000
C         -5.68130       -4.17450        1.36290
C         -4.69920       -3.75590        2.25870
C         -5.03610       -3.38740        3.54360
C         -6.35940       -3.40230        3.98440
S         -6.65820       -2.94160        5.66310
C         -8.05420       -4.00430        6.19380
C         -7.76690       -5.48010        6.00570
C         -7.33450       -3.75160        3.05490
F         -8.64700       -3.72290        3.37790
C         -7.01010       -4.14880        1.77470
C         -5.80850       -5.95920       -0.34340
C         -5.47620       -6.58580       -1.56940
C         -4.64760       -5.91730       -2.48610
C         -4.22690       -6.54100       -3.74630
C         -3.70330       -7.83340       -3.76240
C         -3.26430       -8.39900       -4.94020
C         -3.33240       -7.70570       -6.14630
S         -2.77020       -8.53430       -7.60650
C         -1.77190       -7.25370       -8.45320
C         -0.65000       -6.74070       -7.57290
C         -3.88120       -6.42770       -6.12050
C         -4.31190       -5.84330       -4.94720
F         -4.01340       -5.70970       -7.25850
C         -4.21250       -4.65090       -2.12150
S         -3.18530       -3.62440       -3.08630
C         -6.08500       -7.86320       -1.69180
C         -6.82420       -8.21820       -0.60450
S         -6.82090       -6.98060        0.63790
C         -7.56650       -9.40940       -0.35290
C         -8.35360       -9.63410        0.73530
C         -8.96380      -10.91160        0.74490
C         -9.81760      -11.43850        1.72570
C        -10.11250      -10.64830        2.92820
C         -9.06980      -10.11870        3.68860
C         -9.32930       -9.28120        4.75170
C        -10.63470       -8.94550        5.09940
S        -10.86980       -7.82140        6.44840
C        -12.10370       -6.64410        5.77820
C        -11.63340       -5.99440        4.49240
C        -11.66680       -9.53750        4.37820
F        -12.95480       -9.29580        4.70040
C        -11.42150      -10.36790        3.30200
C        -10.33540      -12.70040        1.48120
C         -9.99200      -13.46430        0.33800
C         -9.10890      -12.94950       -0.62450
C         -8.68590      -13.74010       -1.78700
C         -8.74920      -13.21870       -3.07490
C         -8.32930      -13.95330       -4.16760
C         -7.82030      -15.23750       -4.00800
S         -7.24390      -16.27760       -5.30220
C         -7.34770      -15.20980       -6.78700
C         -6.77790      -15.96950       -7.97010
C         -7.76350      -15.74820       -2.70860
C         -8.18400      -15.02950       -1.61390
F         -7.27340      -16.98980       -2.51610
C         -8.63470      -11.66360       -0.40780
S         -7.54290      -10.77790       -1.44830
C        -10.66500      -14.72270        0.33300
C        -11.44710      -14.90560        1.41590
S        -11.43270      -13.57210        2.51860
H         11.45370        3.15390        6.13720
H          7.15380        0.67770        2.02320
H          5.68780        0.17020        0.15130
H          5.05880        0.12640       -2.13550
H          3.65780        0.29660       -1.04110
H          2.92020       -0.09280       -3.39060
H          2.41040        1.50310       -2.82170
H          3.79410        1.36120       -3.90890
H          7.03780        4.82850        1.00640
H          8.21440        0.91100        6.18350
H          6.40050       -0.22760        7.34470
H          2.86770       -0.89210        8.15260
H          4.54280       -0.38620        8.46350
H          3.65240       -2.76050        6.73400
H          5.33430       -2.29580        6.99060
H          4.36150       -2.87280        8.35010
H          5.42430        2.52810        3.37390
H          4.33010        6.38060        0.21860
H          1.96140        6.83370       -0.06910
H         -1.13990        8.67250        0.59120
H          0.27400        8.14220       -0.34470
H         -1.46760        6.39760        1.48650
H         -0.03530        5.81260        0.64680
H         -1.44600        6.34480       -0.28230
H          4.25700        8.29800        4.04840
H          4.05180        5.33290        3.34100
H          3.01210        4.08120        5.10340
H          2.54150        2.59470        6.59950
H          2.83010        2.32020        8.32970
H          1.97190        4.98270        7.06990
H          0.98760        3.92760        8.09130
H          2.39280        4.75400        8.77040
H          7.62190        5.72800        5.67030
H          6.46630        9.47360       -0.55700
H          2.46100        9.77710       -3.29590
H          0.99000       11.34630       -2.12660
H          0.95510       10.78500        2.30700
H         -0.42100       11.89170        2.40080
H          1.07570       13.75970        3.05760
H          1.24390       12.40450        4.18480
H          2.48120       12.69270        2.96230
H          4.67120        9.22210        0.33360
H          5.42110        3.57900       -3.45520
H          6.38830        1.76760       -4.77610
H          6.83260        0.12970       -6.10310
H          7.38240       -0.23990       -7.74260
H          5.23380        1.84300       -7.07270
H          4.91730        0.23510       -7.73460
H          5.80310        1.42730       -8.68920
H          7.71730        6.42890       -5.67520
H          3.74010        4.52890       -4.86670
H          0.61350        4.77390       -1.64460
H          1.60010        2.91170       -0.39080
H          1.98560        3.55920        1.94470
H         -1.66940        2.85990        5.05090
H         -0.33620        2.96830        6.21340
H         -0.70260        0.58970        5.58510
H          0.87040        1.13260        4.98230
H         -0.49750        0.98670        3.87740
H         -2.58500        2.50400        0.44470
H         -2.59890        0.29640       -5.83220
H         -2.41660       -0.75100       -8.01240
H         -1.48630       -2.41560      -11.14780
H         -2.36850       -1.36570      -10.03250
H         -1.19290       -4.13340       -9.40730
H         -1.99360       -3.12080       -8.20610
H         -2.91480       -3.76550       -9.56650
H          1.66130        0.68030       -5.64450
H         -1.99140       -1.37040       -4.14950
H         -4.05420       -2.12390        0.10630
H         -3.66240       -3.76590        1.95870
H         -4.27030       -3.09430        4.24490
H         -8.95430       -3.68950        5.67000
H         -8.15730       -3.75840        7.25080
H         -8.58260       -6.06620        6.42540
H         -6.84370       -5.75570        6.51110
H         -7.67060       -5.73030        4.95030
H         -7.80880       -4.41520        1.10030
H         -3.60710       -8.38240       -2.83830
H         -2.84860       -9.39460       -4.94610
H         -2.43090       -6.45410       -8.78400
H         -1.38070       -7.77730       -9.32530
H         -1.04590       -6.20450       -6.71190
H         -0.01610       -6.06140       -8.13920
H         -0.03920       -7.56670       -7.21470
H         -4.74070       -4.85440       -4.98950
H         -5.99520       -8.49030       -2.56070
H         -8.50520       -8.89620        1.50270
H         -8.04950      -10.36570        3.43770
H         -8.51990       -8.85680        5.32530
H        -13.04960       -7.16580        5.64860
H        -12.21000       -5.90950        6.57630
H        -12.36110       -5.25150        4.17240
H        -10.67410       -5.50210        4.63400
H        -11.52710       -6.73340        3.70000
H        -12.25810      -10.77370        2.75500
H         -9.15200      -12.22990       -3.23190
H         -8.40460      -13.51480       -5.14880
H         -6.77110      -14.30600       -6.58990
H         -8.39610      -14.96110       -6.95330
H         -5.74010      -16.23710       -7.78620
H         -7.34290      -16.88200       -8.14510
H         -6.82640      -15.35110       -8.86390
H         -8.09330      -15.46530       -0.63120
H        -10.56980      -15.44070       -0.46090
H        -12.05670      -15.75600        1.65150
