
  xtb     03042215313D
 energy: -535.402982004088 gnorm: 0.000268335903 xtb: 6.4.1 (unknown)
298325  0     0  0            999 V2000
   11.2105    3.8298    5.3342 C   0  0  0  0  0  0  0  0  0  0  0  0
   11.9745    4.9378    5.0935 C   0  0  0  0  0  0  0  0  0  0  0  0
   13.0621    5.1698    5.8427 F   0  0  0  0  0  0  0  0  0  0  0  0
   11.6273    5.8946    4.1111 C   0  0  0  0  0  0  0  0  0  0  0  0
   12.3544    7.0150    4.0250 F   0  0  0  0  0  0  0  0  0  0  0  0
   10.5386    5.7027    3.2980 C   0  0  0  0  0  0  0  0  0  0  0  0
    9.8001    4.4980    3.4592 C   0  0  0  0  0  0  0  0  0  0  0  0
    8.8701    4.1547    2.5615 N   0  0  0  0  0  0  0  0  0  0  0  0
    8.0566    3.1571    2.7970 C   0  0  0  0  0  0  0  0  0  0  0  0
    7.1766    2.7928    1.6831 C   0  0  0  0  0  0  0  0  0  0  0  0
    6.7927    1.4850    1.4043 C   0  0  0  0  0  0  0  0  0  0  0  0
    5.9592    1.1967    0.3376 C   0  0  0  0  0  0  0  0  0  0  0  0
    5.4697    2.2094   -0.4842 C   0  0  0  0  0  0  0  0  0  0  0  0
    4.6286    2.0546   -1.5322 O   0  0  0  0  0  0  0  0  0  0  0  0
    4.1934    0.7541   -1.8838 C   0  0  0  0  0  0  0  0  0  0  0  0
    3.2684    0.8893   -3.0827 C   0  0  0  0  0  0  0  0  0  0  0  0
    5.8862    3.5180   -0.2037 C   0  0  0  0  0  0  0  0  0  0  0  0
    6.7281    3.8115    0.8394 C   0  0  0  0  0  0  0  0  0  0  0  0
    5.4298    4.5217   -0.9849 F   0  0  0  0  0  0  0  0  0  0  0  0
    8.0899    2.5239    4.0898 C   0  0  0  0  0  0  0  0  0  0  0  0
    9.1470    2.6941    4.8525 N   0  0  0  0  0  0  0  0  0  0  0  0
   10.0642    3.6197    4.5433 C   0  0  0  0  0  0  0  0  0  0  0  0
    6.9824    1.7746    4.6775 C   0  0  0  0  0  0  0  0  0  0  0  0
    7.2066    0.9937    5.8106 C   0  0  0  0  0  0  0  0  0  0  0  0
    6.1751    0.3507    6.4639 C   0  0  0  0  0  0  0  0  0  0  0  0
    4.8622    0.4644    6.0106 C   0  0  0  0  0  0  0  0  0  0  0  0
    3.7589   -0.0761    6.5722 O   0  0  0  0  0  0  0  0  0  0  0  0
    3.8794   -0.8709    7.7382 C   0  0  0  0  0  0  0  0  0  0  0  0
    4.3410   -2.2919    7.4326 C   0  0  0  0  0  0  0  0  0  0  0  0
    4.6570    1.2473    4.8668 C   0  0  0  0  0  0  0  0  0  0  0  0
    3.3922    1.3922    4.4049 F   0  0  0  0  0  0  0  0  0  0  0  0
    5.6722    1.9010    4.2136 C   0  0  0  0  0  0  0  0  0  0  0  0
   10.0124    6.6347    2.2960 C   0  0  0  0  0  0  0  0  0  0  0  0
   10.7173    7.0960    1.2086 C   0  0  0  0  0  0  0  0  0  0  0  0
   12.0340    6.8739    1.1166 F   0  0  0  0  0  0  0  0  0  0  0  0
   10.0668    7.6823    0.1047 C   0  0  0  0  0  0  0  0  0  0  0  0
   10.8097    8.0133   -0.9612 F   0  0  0  0  0  0  0  0  0  0  0  0
    8.6978    7.8336    0.0580 C   0  0  0  0  0  0  0  0  0  0  0  0
    7.9563    7.4675    1.2218 C   0  0  0  0  0  0  0  0  0  0  0  0
    6.6168    7.5847    1.2382 N   0  0  0  0  0  0  0  0  0  0  0  0
    5.9233    7.0955    2.2373 C   0  0  0  0  0  0  0  0  0  0  0  0
    4.4694    7.2999    2.1435 C   0  0  0  0  0  0  0  0  0  0  0  0
    3.7925    6.8940    0.9997 C   0  0  0  0  0  0  0  0  0  0  0  0
    2.4438    7.1544    0.8388 C   0  0  0  0  0  0  0  0  0  0  0  0
    1.7372    7.8650    1.8036 C   0  0  0  0  0  0  0  0  0  0  0  0
    0.4529    8.2785    1.7153 O   0  0  0  0  0  0  0  0  0  0  0  0
   -0.3099    7.9615    0.5666 C   0  0  0  0  0  0  0  0  0  0  0  0
   -0.8474    6.5348    0.6043 C   0  0  0  0  0  0  0  0  0  0  0  0
    2.4317    8.2347    2.9667 C   0  0  0  0  0  0  0  0  0  0  0  0
    3.7674    7.9652    3.1472 C   0  0  0  0  0  0  0  0  0  0  0  0
    1.7660    8.9035    3.9288 F   0  0  0  0  0  0  0  0  0  0  0  0
    6.5795    6.4318    3.3243 C   0  0  0  0  0  0  0  0  0  0  0  0
    7.8934    6.4039    3.3587 N   0  0  0  0  0  0  0  0  0  0  0  0
    8.6102    6.8728    2.3266 C   0  0  0  0  0  0  0  0  0  0  0  0
    5.9002    5.6830    4.3818 C   0  0  0  0  0  0  0  0  0  0  0  0
    4.6104    5.1746    4.2485 C   0  0  0  0  0  0  0  0  0  0  0  0
    4.0177    4.4381    5.2560 C   0  0  0  0  0  0  0  0  0  0  0  0
    4.7077    4.1400    6.4279 C   0  0  0  0  0  0  0  0  0  0  0  0
    4.2501    3.4038    7.4611 O   0  0  0  0  0  0  0  0  0  0  0  0
    2.8747    3.0647    7.5304 C   0  0  0  0  0  0  0  0  0  0  0  0
    2.0001    4.2624    7.8837 C   0  0  0  0  0  0  0  0  0  0  0  0
    6.0260    4.6148    6.5276 C   0  0  0  0  0  0  0  0  0  0  0  0
    6.7354    4.3123    7.6335 F   0  0  0  0  0  0  0  0  0  0  0  0
    6.6118    5.3728    5.5455 C   0  0  0  0  0  0  0  0  0  0  0  0
    7.9092    8.0230   -1.1476 C   0  0  0  0  0  0  0  0  0  0  0  0
    6.7181    8.6739   -1.2242 C   0  0  0  0  0  0  0  0  0  0  0  0
    5.8335    8.1278   -2.1915 C   0  0  0  0  0  0  0  0  0  0  0  0
    4.4404    8.3057   -2.2768 C   0  0  0  0  0  0  0  0  0  0  0  0
    3.6730    9.3429   -1.5756 C   0  0  0  0  0  0  0  0  0  0  0  0
    2.6273    9.9812   -2.2491 C   0  0  0  0  0  0  0  0  0  0  0  0
    1.8031   10.8717   -1.5997 C   0  0  0  0  0  0  0  0  0  0  0  0
    1.9795   11.1797   -0.2495 C   0  0  0  0  0  0  0  0  0  0  0  0
    0.8262   12.3127    0.4565 S   0  0  0  0  0  0  0  0  0  0  0  0
    0.6517   11.8237    2.2172 C   0  0  0  0  0  0  0  0  0  0  0  0
    1.4141   12.7310    3.1611 C   0  0  0  0  0  0  0  0  0  0  0  0
    3.0636   10.5885    0.3895 C   0  0  0  0  0  0  0  0  0  0  0  0
    3.3532   10.8713    1.6799 F   0  0  0  0  0  0  0  0  0  0  0  0
    3.8899    9.6828   -0.2454 C   0  0  0  0  0  0  0  0  0  0  0  0
    3.7546    7.3346   -2.9977 C   0  0  0  0  0  0  0  0  0  0  0  0
    4.3851    6.3265   -3.7615 C   0  0  0  0  0  0  0  0  0  0  0  0
    5.7831    6.2262   -3.7720 C   0  0  0  0  0  0  0  0  0  0  0  0
    6.4493    5.1382   -4.5023 C   0  0  0  0  0  0  0  0  0  0  0  0
    6.1095    3.8105   -4.2534 C   0  0  0  0  0  0  0  0  0  0  0  0
    6.6618    2.7876   -4.9972 C   0  0  0  0  0  0  0  0  0  0  0  0
    7.5598    3.0564   -6.0244 C   0  0  0  0  0  0  0  0  0  0  0  0
    8.2522    1.8226   -7.0786 S   0  0  0  0  0  0  0  0  0  0  0  0
    6.9520    0.5341   -7.1079 C   0  0  0  0  0  0  0  0  0  0  0  0
    5.6452    1.0425   -7.6848 C   0  0  0  0  0  0  0  0  0  0  0  0
    7.9415    4.3843   -6.2148 C   0  0  0  0  0  0  0  0  0  0  0  0
    7.4074    5.4159   -5.4716 C   0  0  0  0  0  0  0  0  0  0  0  0
    8.8412    4.6791   -7.1720 F   0  0  0  0  0  0  0  0  0  0  0  0
    6.4626    7.0927   -2.9335 C   0  0  0  0  0  0  0  0  0  0  0  0
    8.1163    6.8534   -2.4431 S   0  0  0  0  0  0  0  0  0  0  0  0
    3.4611    5.3705   -4.2596 C   0  0  0  0  0  0  0  0  0  0  0  0
    2.2036    5.5405   -3.7729 C   0  0  0  0  0  0  0  0  0  0  0  0
    2.0383    7.0246   -2.8560 S   0  0  0  0  0  0  0  0  0  0  0  0
    1.2094    4.5120   -3.6840 C   0  0  0  0  0  0  0  0  0  0  0  0
    0.5758    4.1665   -2.5299 C   0  0  0  0  0  0  0  0  0  0  0  0
   -0.0840    2.9150   -2.5985 C   0  0  0  0  0  0  0  0  0  0  0  0
   -0.7014    2.2172   -1.5465 C   0  0  0  0  0  0  0  0  0  0  0  0
   -0.5204    2.6588   -0.1583 C   0  0  0  0  0  0  0  0  0  0  0  0
    0.7645    2.9765    0.2897 C   0  0  0  0  0  0  0  0  0  0  0  0
    0.9880    3.3323    1.6016 C   0  0  0  0  0  0  0  0  0  0  0  0
   -0.0583    3.3947    2.5189 C   0  0  0  0  0  0  0  0  0  0  0  0
    0.3275    3.8924    4.1716 S   0  0  0  0  0  0  0  0  0  0  0  0
   -0.6041    2.6924    5.1939 C   0  0  0  0  0  0  0  0  0  0  0  0
   -0.2054    1.2624    4.8893 C   0  0  0  0  0  0  0  0  0  0  0  0
   -1.3369    3.1010    2.0543 C   0  0  0  0  0  0  0  0  0  0  0  0
   -2.4026    3.1848    2.8784 F   0  0  0  0  0  0  0  0  0  0  0  0
   -1.5726    2.7206    0.7473 C   0  0  0  0  0  0  0  0  0  0  0  0
   -1.3419    1.0346   -1.8851 C   0  0  0  0  0  0  0  0  0  0  0  0
   -1.3040    0.4912   -3.1944 C   0  0  0  0  0  0  0  0  0  0  0  0
   -0.6040    1.1448   -4.2224 C   0  0  0  0  0  0  0  0  0  0  0  0
   -0.4907    0.5484   -5.5584 C   0  0  0  0  0  0  0  0  0  0  0  0
   -1.6200    0.1336   -6.2574 C   0  0  0  0  0  0  0  0  0  0  0  0
   -1.5145   -0.4583   -7.5009 C   0  0  0  0  0  0  0  0  0  0  0  0
   -0.2711   -0.6708   -8.0868 C   0  0  0  0  0  0  0  0  0  0  0  0
    0.0077   -1.4246   -9.6527 S   0  0  0  0  0  0  0  0  0  0  0  0
   -1.6103   -2.1445  -10.0994 C   0  0  0  0  0  0  0  0  0  0  0  0
   -1.9490   -3.3651   -9.2652 C   0  0  0  0  0  0  0  0  0  0  0  0
    0.8507   -0.2291   -7.3821 C   0  0  0  0  0  0  0  0  0  0  0  0
    0.7591    0.3735   -6.1486 C   0  0  0  0  0  0  0  0  0  0  0  0
    2.0771   -0.4106   -7.9164 F   0  0  0  0  0  0  0  0  0  0  0  0
   -0.0061    2.3506   -3.8949 C   0  0  0  0  0  0  0  0  0  0  0  0
    0.9569    3.3449   -4.9621 S   0  0  0  0  0  0  0  0  0  0  0  0
   -1.9397   -0.7731   -3.2569 C   0  0  0  0  0  0  0  0  0  0  0  0
   -2.4750   -1.1797   -2.0723 C   0  0  0  0  0  0  0  0  0  0  0  0
   -2.1997   -0.0190   -0.7877 S   0  0  0  0  0  0  0  0  0  0  0  0
   -3.1870   -2.3925   -1.8366 C   0  0  0  0  0  0  0  0  0  0  0  0
   -3.9223   -2.7597   -0.7510 C   0  0  0  0  0  0  0  0  0  0  0  0
   -4.5169   -4.0420   -0.8776 C   0  0  0  0  0  0  0  0  0  0  0  0
   -5.3389   -4.7119    0.0400 C   0  0  0  0  0  0  0  0  0  0  0  0
   -5.6813   -4.1745    1.3629 C   0  0  0  0  0  0  0  0  0  0  0  0
   -4.6992   -3.7559    2.2587 C   0  0  0  0  0  0  0  0  0  0  0  0
   -5.0361   -3.3874    3.5436 C   0  0  0  0  0  0  0  0  0  0  0  0
   -6.3594   -3.4023    3.9844 C   0  0  0  0  0  0  0  0  0  0  0  0
   -6.6582   -2.9416    5.6631 S   0  0  0  0  0  0  0  0  0  0  0  0
   -8.0542   -4.0043    6.1938 C   0  0  0  0  0  0  0  0  0  0  0  0
   -7.7669   -5.4801    6.0057 C   0  0  0  0  0  0  0  0  0  0  0  0
   -7.3345   -3.7516    3.0549 C   0  0  0  0  0  0  0  0  0  0  0  0
   -8.6470   -3.7229    3.3779 F   0  0  0  0  0  0  0  0  0  0  0  0
   -7.0101   -4.1488    1.7747 C   0  0  0  0  0  0  0  0  0  0  0  0
   -5.8085   -5.9592   -0.3434 C   0  0  0  0  0  0  0  0  0  0  0  0
   -5.4762   -6.5858   -1.5694 C   0  0  0  0  0  0  0  0  0  0  0  0
   -4.6476   -5.9173   -2.4861 C   0  0  0  0  0  0  0  0  0  0  0  0
   -4.2269   -6.5410   -3.7463 C   0  0  0  0  0  0  0  0  0  0  0  0
   -3.7033   -7.8334   -3.7624 C   0  0  0  0  0  0  0  0  0  0  0  0
   -3.2643   -8.3990   -4.9402 C   0  0  0  0  0  0  0  0  0  0  0  0
   -3.3324   -7.7057   -6.1463 C   0  0  0  0  0  0  0  0  0  0  0  0
   -2.7702   -8.5343   -7.6065 S   0  0  0  0  0  0  0  0  0  0  0  0
   -1.7719   -7.2537   -8.4532 C   0  0  0  0  0  0  0  0  0  0  0  0
   -0.6500   -6.7407   -7.5729 C   0  0  0  0  0  0  0  0  0  0  0  0
   -3.8812   -6.4277   -6.1205 C   0  0  0  0  0  0  0  0  0  0  0  0
   -4.3119   -5.8433   -4.9472 C   0  0  0  0  0  0  0  0  0  0  0  0
   -4.0134   -5.7097   -7.2585 F   0  0  0  0  0  0  0  0  0  0  0  0
   -4.2125   -4.6509   -2.1215 C   0  0  0  0  0  0  0  0  0  0  0  0
   -3.1853   -3.6244   -3.0863 S   0  0  0  0  0  0  0  0  0  0  0  0
   -6.0850   -7.8632   -1.6918 C   0  0  0  0  0  0  0  0  0  0  0  0
   -6.8242   -8.2182   -0.6045 C   0  0  0  0  0  0  0  0  0  0  0  0
   -6.8209   -6.9806    0.6379 S   0  0  0  0  0  0  0  0  0  0  0  0
   -7.5665   -9.4094   -0.3529 C   0  0  0  0  0  0  0  0  0  0  0  0
   -8.3536   -9.6341    0.7353 C   0  0  0  0  0  0  0  0  0  0  0  0
   -8.9638  -10.9116    0.7449 C   0  0  0  0  0  0  0  0  0  0  0  0
   -9.8176  -11.4385    1.7257 C   0  0  0  0  0  0  0  0  0  0  0  0
  -10.1125  -10.6483    2.9282 C   0  0  0  0  0  0  0  0  0  0  0  0
   -9.0698  -10.1187    3.6886 C   0  0  0  0  0  0  0  0  0  0  0  0
   -9.3293   -9.2812    4.7517 C   0  0  0  0  0  0  0  0  0  0  0  0
  -10.6347   -8.9455    5.0994 C   0  0  0  0  0  0  0  0  0  0  0  0
  -10.8698   -7.8214    6.4484 S   0  0  0  0  0  0  0  0  0  0  0  0
  -12.1037   -6.6441    5.7782 C   0  0  0  0  0  0  0  0  0  0  0  0
  -11.6334   -5.9944    4.4924 C   0  0  0  0  0  0  0  0  0  0  0  0
  -11.6668   -9.5375    4.3782 C   0  0  0  0  0  0  0  0  0  0  0  0
  -12.9548   -9.2958    4.7004 F   0  0  0  0  0  0  0  0  0  0  0  0
  -11.4215  -10.3679    3.3020 C   0  0  0  0  0  0  0  0  0  0  0  0
  -10.3354  -12.7004    1.4812 C   0  0  0  0  0  0  0  0  0  0  0  0
   -9.9920  -13.4643    0.3380 C   0  0  0  0  0  0  0  0  0  0  0  0
   -9.1089  -12.9495   -0.6245 C   0  0  0  0  0  0  0  0  0  0  0  0
   -8.6859  -13.7401   -1.7870 C   0  0  0  0  0  0  0  0  0  0  0  0
   -8.7492  -13.2187   -3.0749 C   0  0  0  0  0  0  0  0  0  0  0  0
   -8.3293  -13.9533   -4.1676 C   0  0  0  0  0  0  0  0  0  0  0  0
   -7.8203  -15.2375   -4.0080 C   0  0  0  0  0  0  0  0  0  0  0  0
   -7.2439  -16.2776   -5.3022 S   0  0  0  0  0  0  0  0  0  0  0  0
   -7.3477  -15.2098   -6.7870 C   0  0  0  0  0  0  0  0  0  0  0  0
   -6.7779  -15.9695   -7.9701 C   0  0  0  0  0  0  0  0  0  0  0  0
   -7.7635  -15.7482   -2.7086 C   0  0  0  0  0  0  0  0  0  0  0  0
   -8.1840  -15.0295   -1.6139 C   0  0  0  0  0  0  0  0  0  0  0  0
   -7.2734  -16.9898   -2.5161 F   0  0  0  0  0  0  0  0  0  0  0  0
   -8.6347  -11.6636   -0.4078 C   0  0  0  0  0  0  0  0  0  0  0  0
   -7.5429  -10.7779   -1.4483 S   0  0  0  0  0  0  0  0  0  0  0  0
  -10.6650  -14.7227    0.3330 C   0  0  0  0  0  0  0  0  0  0  0  0
  -11.4471  -14.9056    1.4159 C   0  0  0  0  0  0  0  0  0  0  0  0
  -11.4327  -13.5721    2.5186 S   0  0  0  0  0  0  0  0  0  0  0  0
   11.4537    3.1539    6.1372 H   0  0  0  0  0  0  0  0  0  0  0  0
    7.1538    0.6777    2.0232 H   0  0  0  0  0  0  0  0  0  0  0  0
    5.6878    0.1702    0.1513 H   0  0  0  0  0  0  0  0  0  0  0  0
    5.0588    0.1264   -2.1355 H   0  0  0  0  0  0  0  0  0  0  0  0
    3.6578    0.2966   -1.0411 H   0  0  0  0  0  0  0  0  0  0  0  0
    2.9202   -0.0928   -3.3906 H   0  0  0  0  0  0  0  0  0  0  0  0
    2.4104    1.5031   -2.8217 H   0  0  0  0  0  0  0  0  0  0  0  0
    3.7941    1.3612   -3.9089 H   0  0  0  0  0  0  0  0  0  0  0  0
    7.0378    4.8285    1.0064 H   0  0  0  0  0  0  0  0  0  0  0  0
    8.2144    0.9110    6.1835 H   0  0  0  0  0  0  0  0  0  0  0  0
    6.4005   -0.2276    7.3447 H   0  0  0  0  0  0  0  0  0  0  0  0
    2.8677   -0.8921    8.1526 H   0  0  0  0  0  0  0  0  0  0  0  0
    4.5428   -0.3862    8.4635 H   0  0  0  0  0  0  0  0  0  0  0  0
    3.6524   -2.7605    6.7340 H   0  0  0  0  0  0  0  0  0  0  0  0
    5.3343   -2.2958    6.9906 H   0  0  0  0  0  0  0  0  0  0  0  0
    4.3615   -2.8728    8.3501 H   0  0  0  0  0  0  0  0  0  0  0  0
    5.4243    2.5281    3.3739 H   0  0  0  0  0  0  0  0  0  0  0  0
    4.3301    6.3806    0.2186 H   0  0  0  0  0  0  0  0  0  0  0  0
    1.9614    6.8337   -0.0691 H   0  0  0  0  0  0  0  0  0  0  0  0
   -1.1399    8.6725    0.5912 H   0  0  0  0  0  0  0  0  0  0  0  0
    0.2740    8.1422   -0.3447 H   0  0  0  0  0  0  0  0  0  0  0  0
   -1.4676    6.3976    1.4865 H   0  0  0  0  0  0  0  0  0  0  0  0
   -0.0353    5.8126    0.6468 H   0  0  0  0  0  0  0  0  0  0  0  0
   -1.4460    6.3448   -0.2823 H   0  0  0  0  0  0  0  0  0  0  0  0
    4.2570    8.2980    4.0484 H   0  0  0  0  0  0  0  0  0  0  0  0
    4.0518    5.3329    3.3410 H   0  0  0  0  0  0  0  0  0  0  0  0
    3.0121    4.0812    5.1034 H   0  0  0  0  0  0  0  0  0  0  0  0
    2.5415    2.5947    6.5995 H   0  0  0  0  0  0  0  0  0  0  0  0
    2.8301    2.3202    8.3297 H   0  0  0  0  0  0  0  0  0  0  0  0
    1.9719    4.9827    7.0699 H   0  0  0  0  0  0  0  0  0  0  0  0
    0.9876    3.9276    8.0913 H   0  0  0  0  0  0  0  0  0  0  0  0
    2.3928    4.7540    8.7704 H   0  0  0  0  0  0  0  0  0  0  0  0
    7.6219    5.7280    5.6703 H   0  0  0  0  0  0  0  0  0  0  0  0
    6.4663    9.4736   -0.5570 H   0  0  0  0  0  0  0  0  0  0  0  0
    2.4610    9.7771   -3.2959 H   0  0  0  0  0  0  0  0  0  0  0  0
    0.9900   11.3463   -2.1266 H   0  0  0  0  0  0  0  0  0  0  0  0
    0.9551   10.7850    2.3070 H   0  0  0  0  0  0  0  0  0  0  0  0
   -0.4210   11.8917    2.4008 H   0  0  0  0  0  0  0  0  0  0  0  0
    1.0757   13.7597    3.0576 H   0  0  0  0  0  0  0  0  0  0  0  0
    1.2439   12.4045    4.1848 H   0  0  0  0  0  0  0  0  0  0  0  0
    2.4812   12.6927    2.9623 H   0  0  0  0  0  0  0  0  0  0  0  0
    4.6712    9.2221    0.3336 H   0  0  0  0  0  0  0  0  0  0  0  0
    5.4211    3.5790   -3.4552 H   0  0  0  0  0  0  0  0  0  0  0  0
    6.3883    1.7676   -4.7761 H   0  0  0  0  0  0  0  0  0  0  0  0
    6.8326    0.1297   -6.1031 H   0  0  0  0  0  0  0  0  0  0  0  0
    7.3824   -0.2399   -7.7426 H   0  0  0  0  0  0  0  0  0  0  0  0
    5.2338    1.8430   -7.0727 H   0  0  0  0  0  0  0  0  0  0  0  0
    4.9173    0.2351   -7.7346 H   0  0  0  0  0  0  0  0  0  0  0  0
    5.8031    1.4273   -8.6892 H   0  0  0  0  0  0  0  0  0  0  0  0
    7.7173    6.4289   -5.6752 H   0  0  0  0  0  0  0  0  0  0  0  0
    3.7401    4.5289   -4.8667 H   0  0  0  0  0  0  0  0  0  0  0  0
    0.6135    4.7739   -1.6446 H   0  0  0  0  0  0  0  0  0  0  0  0
    1.6001    2.9117   -0.3908 H   0  0  0  0  0  0  0  0  0  0  0  0
    1.9856    3.5592    1.9447 H   0  0  0  0  0  0  0  0  0  0  0  0
   -1.6694    2.8599    5.0509 H   0  0  0  0  0  0  0  0  0  0  0  0
   -0.3362    2.9683    6.2134 H   0  0  0  0  0  0  0  0  0  0  0  0
   -0.7026    0.5897    5.5851 H   0  0  0  0  0  0  0  0  0  0  0  0
    0.8704    1.1326    4.9823 H   0  0  0  0  0  0  0  0  0  0  0  0
   -0.4975    0.9867    3.8774 H   0  0  0  0  0  0  0  0  0  0  0  0
   -2.5850    2.5040    0.4447 H   0  0  0  0  0  0  0  0  0  0  0  0
   -2.5989    0.2964   -5.8322 H   0  0  0  0  0  0  0  0  0  0  0  0
   -2.4166   -0.7510   -8.0124 H   0  0  0  0  0  0  0  0  0  0  0  0
   -1.4863   -2.4156  -11.1478 H   0  0  0  0  0  0  0  0  0  0  0  0
   -2.3685   -1.3657  -10.0325 H   0  0  0  0  0  0  0  0  0  0  0  0
   -1.1929   -4.1334   -9.4073 H   0  0  0  0  0  0  0  0  0  0  0  0
   -1.9936   -3.1208   -8.2061 H   0  0  0  0  0  0  0  0  0  0  0  0
   -2.9148   -3.7655   -9.5665 H   0  0  0  0  0  0  0  0  0  0  0  0
    1.6613    0.6803   -5.6445 H   0  0  0  0  0  0  0  0  0  0  0  0
   -1.9914   -1.3704   -4.1495 H   0  0  0  0  0  0  0  0  0  0  0  0
   -4.0542   -2.1239    0.1063 H   0  0  0  0  0  0  0  0  0  0  0  0
   -3.6624   -3.7659    1.9587 H   0  0  0  0  0  0  0  0  0  0  0  0
   -4.2703   -3.0943    4.2449 H   0  0  0  0  0  0  0  0  0  0  0  0
   -8.9543   -3.6895    5.6700 H   0  0  0  0  0  0  0  0  0  0  0  0
   -8.1573   -3.7584    7.2508 H   0  0  0  0  0  0  0  0  0  0  0  0
   -8.5826   -6.0662    6.4254 H   0  0  0  0  0  0  0  0  0  0  0  0
   -6.8437   -5.7557    6.5111 H   0  0  0  0  0  0  0  0  0  0  0  0
   -7.6706   -5.7303    4.9503 H   0  0  0  0  0  0  0  0  0  0  0  0
   -7.8088   -4.4152    1.1003 H   0  0  0  0  0  0  0  0  0  0  0  0
   -3.6071   -8.3824   -2.8383 H   0  0  0  0  0  0  0  0  0  0  0  0
   -2.8486   -9.3946   -4.9461 H   0  0  0  0  0  0  0  0  0  0  0  0
   -2.4309   -6.4541   -8.7840 H   0  0  0  0  0  0  0  0  0  0  0  0
   -1.3807   -7.7773   -9.3253 H   0  0  0  0  0  0  0  0  0  0  0  0
   -1.0459   -6.2045   -6.7119 H   0  0  0  0  0  0  0  0  0  0  0  0
   -0.0161   -6.0614   -8.1392 H   0  0  0  0  0  0  0  0  0  0  0  0
   -0.0392   -7.5667   -7.2147 H   0  0  0  0  0  0  0  0  0  0  0  0
   -4.7407   -4.8544   -4.9895 H   0  0  0  0  0  0  0  0  0  0  0  0
   -5.9952   -8.4903   -2.5607 H   0  0  0  0  0  0  0  0  0  0  0  0
   -8.5052   -8.8962    1.5027 H   0  0  0  0  0  0  0  0  0  0  0  0
   -8.0495  -10.3657    3.4377 H   0  0  0  0  0  0  0  0  0  0  0  0
   -8.5199   -8.8568    5.3253 H   0  0  0  0  0  0  0  0  0  0  0  0
  -13.0496   -7.1658    5.6486 H   0  0  0  0  0  0  0  0  0  0  0  0
  -12.2100   -5.9095    6.5763 H   0  0  0  0  0  0  0  0  0  0  0  0
  -12.3611   -5.2515    4.1724 H   0  0  0  0  0  0  0  0  0  0  0  0
  -10.6741   -5.5021    4.6340 H   0  0  0  0  0  0  0  0  0  0  0  0
  -11.5271   -6.7334    3.7000 H   0  0  0  0  0  0  0  0  0  0  0  0
  -12.2581  -10.7737    2.7550 H   0  0  0  0  0  0  0  0  0  0  0  0
   -9.1520  -12.2299   -3.2319 H   0  0  0  0  0  0  0  0  0  0  0  0
   -8.4046  -13.5148   -5.1488 H   0  0  0  0  0  0  0  0  0  0  0  0
   -6.7711  -14.3060   -6.5899 H   0  0  0  0  0  0  0  0  0  0  0  0
   -8.3961  -14.9611   -6.9533 H   0  0  0  0  0  0  0  0  0  0  0  0
   -5.7401  -16.2371   -7.7862 H   0  0  0  0  0  0  0  0  0  0  0  0
   -7.3429  -16.8820   -8.1451 H   0  0  0  0  0  0  0  0  0  0  0  0
   -6.8264  -15.3511   -8.8639 H   0  0  0  0  0  0  0  0  0  0  0  0
   -8.0933  -15.4653   -0.6312 H   0  0  0  0  0  0  0  0  0  0  0  0
  -10.5698  -15.4407   -0.4609 H   0  0  0  0  0  0  0  0  0  0  0  0
  -12.0567  -15.7560    1.6515 H   0  0  0  0  0  0  0  0  0  0  0  0
  1  2  2  0  0  0  0
  2  3  1  0  0  0  0
  2  4  1  0  0  0  0
  4  5  1  0  0  0  0
  4  6  2  0  0  0  0
  6  7  1  0  0  0  0
  7  8  2  0  0  0  0
  8  9  1  0  0  0  0
  9 10  1  0  0  0  0
 10 11  2  0  0  0  0
 11 12  1  0  0  0  0
 12 13  2  0  0  0  0
 13 14  1  0  0  0  0
 14 15  1  0  0  0  0
 15 16  1  0  0  0  0
 13 17  1  0  0  0  0
 17 18  2  0  0  0  0
 17 19  1  0  0  0  0
  9 20  2  0  0  0  0
 20 21  1  0  0  0  0
 21 22  2  0  0  0  0
 20 23  1  0  0  0  0
 23 24  2  0  0  0  0
 24 25  1  0  0  0  0
 25 26  2  0  0  0  0
 26 27  1  0  0  0  0
 27 28  1  0  0  0  0
 28 29  1  0  0  0  0
 26 30  1  0  0  0  0
 30 31  1  0  0  0  0
 30 32  2  0  0  0  0
  6 33  1  0  0  0  0
 33 34  2  0  0  0  0
 34 35  1  0  0  0  0
 34 36  1  0  0  0  0
 36 37  1  0  0  0  0
 36 38  2  0  0  0  0
 38 39  1  0  0  0  0
 39 40  2  0  0  0  0
 40 41  1  0  0  0  0
 41 42  1  0  0  0  0
 42 43  2  0  0  0  0
 43 44  1  0  0  0  0
 44 45  2  0  0  0  0
 45 46  1  0  0  0  0
 46 47  1  0  0  0  0
 47 48  1  0  0  0  0
 45 49  1  0  0  0  0
 49 50  2  0  0  0  0
 49 51  1  0  0  0  0
 41 52  2  0  0  0  0
 52 53  1  0  0  0  0
 53 54  2  0  0  0  0
 52 55  1  0  0  0  0
 55 56  2  0  0  0  0
 56 57  1  0  0  0  0
 57 58  2  0  0  0  0
 58 59  1  0  0  0  0
 59 60  1  0  0  0  0
 60 61  1  0  0  0  0
 58 62  1  0  0  0  0
 62 63  1  0  0  0  0
 62 64  2  0  0  0  0
 38 65  1  0  0  0  0
 65 66  2  0  0  0  0
 66 67  1  0  0  0  0
 67 68  2  0  0  0  0
 68 69  1  0  0  0  0
 69 70  2  0  0  0  0
 70 71  1  0  0  0  0
 71 72  2  0  0  0  0
 72 73  1  0  0  0  0
 73 74  1  0  0  0  0
 74 75  1  0  0  0  0
 72 76  1  0  0  0  0
 76 77  1  0  0  0  0
 76 78  2  0  0  0  0
 68 79  1  0  0  0  0
 79 80  2  0  0  0  0
 80 81  1  0  0  0  0
 81 82  1  0  0  0  0
 82 83  2  0  0  0  0
 83 84  1  0  0  0  0
 84 85  2  0  0  0  0
 85 86  1  0  0  0  0
 86 87  1  0  0  0  0
 87 88  1  0  0  0  0
 85 89  1  0  0  0  0
 89 90  2  0  0  0  0
 89 91  1  0  0  0  0
 81 92  2  0  0  0  0
 92 93  1  0  0  0  0
 80 94  1  0  0  0  0
 94 95  2  0  0  0  0
 95 96  1  0  0  0  0
 95 97  1  0  0  0  0
 97 98  2  0  0  0  0
 98 99  1  0  0  0  0
 99100  2  0  0  0  0
100101  1  0  0  0  0
101102  2  0  0  0  0
102103  1  0  0  0  0
103104  2  0  0  0  0
104105  1  0  0  0  0
105106  1  0  0  0  0
106107  1  0  0  0  0
104108  1  0  0  0  0
108109  1  0  0  0  0
108110  2  0  0  0  0
100111  1  0  0  0  0
111112  2  0  0  0  0
112113  1  0  0  0  0
113114  1  0  0  0  0
114115  2  0  0  0  0
115116  1  0  0  0  0
116117  2  0  0  0  0
117118  1  0  0  0  0
118119  1  0  0  0  0
119120  1  0  0  0  0
117121  1  0  0  0  0
121122  2  0  0  0  0
121123  1  0  0  0  0
113124  2  0  0  0  0
124125  1  0  0  0  0
112126  1  0  0  0  0
126127  2  0  0  0  0
127128  1  0  0  0  0
127129  1  0  0  0  0
129130  2  0  0  0  0
130131  1  0  0  0  0
131132  2  0  0  0  0
132133  1  0  0  0  0
133134  2  0  0  0  0
134135  1  0  0  0  0
135136  2  0  0  0  0
136137  1  0  0  0  0
137138  1  0  0  0  0
138139  1  0  0  0  0
136140  1  0  0  0  0
140141  1  0  0  0  0
140142  2  0  0  0  0
132143  1  0  0  0  0
143144  2  0  0  0  0
144145  1  0  0  0  0
145146  1  0  0  0  0
146147  2  0  0  0  0
147148  1  0  0  0  0
148149  2  0  0  0  0
149150  1  0  0  0  0
150151  1  0  0  0  0
151152  1  0  0  0  0
149153  1  0  0  0  0
153154  2  0  0  0  0
153155  1  0  0  0  0
145156  2  0  0  0  0
156157  1  0  0  0  0
144158  1  0  0  0  0
158159  2  0  0  0  0
159160  1  0  0  0  0
159161  1  0  0  0  0
161162  2  0  0  0  0
162163  1  0  0  0  0
163164  2  0  0  0  0
164165  1  0  0  0  0
165166  2  0  0  0  0
166167  1  0  0  0  0
167168  2  0  0  0  0
168169  1  0  0  0  0
169170  1  0  0  0  0
170171  1  0  0  0  0
168172  1  0  0  0  0
172173  1  0  0  0  0
172174  2  0  0  0  0
164175  1  0  0  0  0
175176  2  0  0  0  0
176177  1  0  0  0  0
177178  1  0  0  0  0
178179  2  0  0  0  0
179180  1  0  0  0  0
180181  2  0  0  0  0
181182  1  0  0  0  0
182183  1  0  0  0  0
183184  1  0  0  0  0
181185  1  0  0  0  0
185186  2  0  0  0  0
185187  1  0  0  0  0
177188  2  0  0  0  0
188189  1  0  0  0  0
176190  1  0  0  0  0
190191  2  0  0  0  0
191192  1  0  0  0  0
 22  1  1  0  0  0  0
 32 23  1  0  0  0  0
 54 33  1  0  0  0  0
 64 55  1  0  0  0  0
 93 65  1  0  0  0  0
125 97  1  0  0  0  0
157129  1  0  0  0  0
189161  1  0  0  0  0
 22  7  1  0  0  0  0
 54 39  1  0  0  0  0
 92 67  1  0  0  0  0
124 99  1  0  0  0  0
156131  1  0  0  0  0
188163  1  0  0  0  0
 18 10  1  0  0  0  0
 50 42  1  0  0  0  0
 78 69  1  0  0  0  0
 96 79  1  0  0  0  0
110101  1  0  0  0  0
128111  1  0  0  0  0
142133  1  0  0  0  0
160143  1  0  0  0  0
174165  1  0  0  0  0
192175  1  0  0  0  0
 90 82  1  0  0  0  0
122114  1  0  0  0  0
154146  1  0  0  0  0
186178  1  0  0  0  0
  1193  1  0  0  0  0
 11194  1  0  0  0  0
 12195  1  0  0  0  0
 15196  1  0  0  0  0
 15197  1  0  0  0  0
 16198  1  0  0  0  0
 16199  1  0  0  0  0
 16200  1  0  0  0  0
 18201  1  0  0  0  0
 24202  1  0  0  0  0
 25203  1  0  0  0  0
 28204  1  0  0  0  0
 28205  1  0  0  0  0
 29206  1  0  0  0  0
 29207  1  0  0  0  0
 29208  1  0  0  0  0
 32209  1  0  0  0  0
 43210  1  0  0  0  0
 44211  1  0  0  0  0
 47212  1  0  0  0  0
 47213  1  0  0  0  0
 48214  1  0  0  0  0
 48215  1  0  0  0  0
 48216  1  0  0  0  0
 50217  1  0  0  0  0
 56218  1  0  0  0  0
 57219  1  0  0  0  0
 60220  1  0  0  0  0
 60221  1  0  0  0  0
 61222  1  0  0  0  0
 61223  1  0  0  0  0
 61224  1  0  0  0  0
 64225  1  0  0  0  0
 66226  1  0  0  0  0
 70227  1  0  0  0  0
 71228  1  0  0  0  0
 74229  1  0  0  0  0
 74230  1  0  0  0  0
 75231  1  0  0  0  0
 75232  1  0  0  0  0
 75233  1  0  0  0  0
 78234  1  0  0  0  0
 83235  1  0  0  0  0
 84236  1  0  0  0  0
 87237  1  0  0  0  0
 87238  1  0  0  0  0
 88239  1  0  0  0  0
 88240  1  0  0  0  0
 88241  1  0  0  0  0
 90242  1  0  0  0  0
 94243  1  0  0  0  0
 98244  1  0  0  0  0
102245  1  0  0  0  0
103246  1  0  0  0  0
106247  1  0  0  0  0
106248  1  0  0  0  0
107249  1  0  0  0  0
107250  1  0  0  0  0
107251  1  0  0  0  0
110252  1  0  0  0  0
115253  1  0  0  0  0
116254  1  0  0  0  0
119255  1  0  0  0  0
119256  1  0  0  0  0
120257  1  0  0  0  0
120258  1  0  0  0  0
120259  1  0  0  0  0
122260  1  0  0  0  0
126261  1  0  0  0  0
130262  1  0  0  0  0
134263  1  0  0  0  0
135264  1  0  0  0  0
138265  1  0  0  0  0
138266  1  0  0  0  0
139267  1  0  0  0  0
139268  1  0  0  0  0
139269  1  0  0  0  0
142270  1  0  0  0  0
147271  1  0  0  0  0
148272  1  0  0  0  0
151273  1  0  0  0  0
151274  1  0  0  0  0
152275  1  0  0  0  0
152276  1  0  0  0  0
152277  1  0  0  0  0
154278  1  0  0  0  0
158279  1  0  0  0  0
162280  1  0  0  0  0
166281  1  0  0  0  0
167282  1  0  0  0  0
170283  1  0  0  0  0
170284  1  0  0  0  0
171285  1  0  0  0  0
171286  1  0  0  0  0
171287  1  0  0  0  0
174288  1  0  0  0  0
179289  1  0  0  0  0
180290  1  0  0  0  0
183291  1  0  0  0  0
183292  1  0  0  0  0
184293  1  0  0  0  0
184294  1  0  0  0  0
184295  1  0  0  0  0
186296  1  0  0  0  0
190297  1  0  0  0  0
191298  1  0  0  0  0
M  END
