234

C         -1.94930      -15.00170        2.11180
C         -1.16890      -13.97610        2.50780
C         -1.89560      -12.76100        2.67620
C         -1.40950      -11.49850        3.05300
C         -0.01900      -11.31010        3.43360
S          0.97430      -10.09460        2.68820
C          2.35340      -10.52930        3.63910
C          3.63760       -9.78630        3.51760
C          3.60550       -8.50830        4.35870
C          2.04120      -11.54570        4.49160
Cl         3.15000      -12.23880        5.60330
C          0.69870      -11.99520        4.37430
Cl         0.04380      -13.22290        5.38000
C         -2.31810      -10.44860        3.06190
C         -3.68780      -10.61480        2.74370
C         -4.17620      -11.87880        2.37510
C         -5.57080      -12.06300        2.01060
S         -6.56400      -13.26460        2.77840
C         -7.95100      -12.82800        1.84180
C         -9.27070      -13.48310        2.05720
C        -10.10630      -12.70530        3.07720
C         -7.64670      -11.80840        0.98940
C         -6.29810      -11.37350        1.07950
Cl        -5.64820      -10.15730        0.05660
Cl        -8.77010      -11.11010       -0.10350
C         -3.26500      -12.92730        2.36290
S         -3.61220      -14.57110        1.90610
C         -4.41520       -9.40870        2.89770
C         -3.64740       -8.35570        3.29350
S         -1.96690       -8.80360        3.51500
C         -4.07990       -7.01870        3.53500
C         -3.35560       -5.97810        4.03400
C         -4.10370       -4.78200        4.17520
C         -3.67330       -3.53560        4.66630
C         -2.29060       -3.33300        5.06670
S         -0.98700       -3.77700        4.00270
C          0.22280       -3.34010        5.16150
C          1.66490       -3.57510        4.87870
C          1.93750       -5.04570        4.56420
C         -0.36580       -2.85150        6.28870
Cl         0.49040       -2.32020        7.67710
C         -1.78650       -2.84130        6.23860
Cl        -2.73260       -2.36980        7.58750
C         -4.62860       -2.52860        4.74550
C         -5.97220       -2.70630        4.33640
C         -6.40110       -3.94840        3.84630
C         -7.77530       -4.16720        3.42150
S         -8.50930       -3.17450        2.19670
C         -9.99110       -4.06760        2.24870
C        -11.15690       -3.68210        1.40650
C        -11.98630       -2.58990        2.08610
C         -9.91070       -5.06220        3.17640
C         -8.65530       -5.12560        3.83930
Cl        -8.33610       -6.24840        5.09430
Cl       -11.18910       -6.15300        3.52250
C         -5.45330       -4.96120        3.78250
S         -5.74020       -6.57500        3.20180
C         -6.74690       -1.53530        4.54770
C         -6.04630       -0.49740        5.06910
S         -4.36320       -0.90930        5.31670
C         -6.59700        0.78650        5.50290
C         -7.63740        0.80400        6.43940
C         -8.16970       -0.44860        7.06860
C         -8.17630        2.02610        6.80300
C         -7.72780        3.23330        6.28500
C         -8.42220        4.49660        6.71280
C         -9.41490        4.96410        5.64700
C         -6.67730        3.22390        5.36750
C         -6.11980        4.48080        4.76620
C         -6.11900        1.99770        4.99120
C         -5.02320        1.99800        4.01660
C         -3.70240        1.83280        4.25890
C         -2.88540        1.96410        3.10170
C         -1.49110        1.82480        2.99940
C         -0.66020        1.46260        4.13430
S         -0.79650        2.27920        5.66560
C          0.54140        1.41750        6.34210
C          1.02680        1.69560        7.72110
C          2.00740        2.87050        7.73110
C          1.05660        0.55390        5.42340
Cl         2.44400       -0.40930        5.70320
C          0.36600        0.55780        4.18260
Cl         0.73970       -0.54930        2.93010
C         -0.92340        2.10580        1.75870
C         -1.69450        2.47980        0.63190
C         -3.09840        2.50410        0.70700
C         -3.89250        2.81420       -0.46740
S         -5.13310        4.03300       -0.43140
C         -5.48350        3.83950       -2.11470
C         -6.56680        4.61980       -2.77320
C         -7.92170        3.93240       -2.58840
C         -4.69290        2.86950       -2.65520
C         -3.78850        2.28780       -1.72700
Cl        -2.74120        0.99610       -2.15700
Cl        -4.74920        2.39620       -4.30370
C         -3.65790        2.26500        1.95460
S         -5.35740        2.30780        2.32720
C         -0.88440        2.86270       -0.46250
C          0.45260        2.76370       -0.21180
S          0.77970        2.18680        1.40450
C          1.50080        3.07060       -1.13190
C          1.36200        3.75940       -2.30140
C          2.56110        3.86350       -3.04270
C          2.73690        4.44780       -4.30940
C          1.60250        4.95940       -5.05790
S          1.62780        6.54960       -5.76090
C          0.02450        6.38300       -6.39170
C         -0.59460        7.46590       -7.20390
C         -0.00920        7.48980       -8.61750
C         -0.48200        5.15690       -6.07940
Cl        -2.04950        4.61910       -6.52770
C          0.40730        4.34660       -5.32310
Cl         0.01600        2.73180       -4.88540
C          4.03300        4.48830       -4.80510
C          5.13240        3.92440       -4.11340
C          4.94830        3.28940       -2.87050
C          6.06820        2.66290       -2.18750
S          7.09400        1.52680       -3.01910
C          8.09860        1.29020       -1.63050
C          9.24390        0.33980       -1.66540
C          8.76440       -1.10620       -1.52210
C          7.64500        2.04200       -0.58840
C          6.49880        2.82340       -0.89960
Cl         5.81220        3.92170        0.22210
Cl         8.38350        2.07640        0.96040
C          3.65780        3.28000       -2.35790
S          3.14690        2.54760       -0.86430
C          6.34300        4.09830       -4.82260
C          6.19160        4.73800       -6.01880
S          4.52600        5.17390       -6.32780
C          7.23140        5.01990       -6.95560
C          8.54650        4.68340       -6.81770
C          9.34350        5.04430       -7.92910
C         10.71410        4.79920       -8.12120
C         11.46270        4.01490       -7.15450
S         12.95160        4.58950       -6.46380
C         13.12020        3.18900       -5.46290
C         14.24450        3.05350       -4.49610
C         13.85690        3.61590       -3.12610
C         12.07550        2.33630       -5.66240
Cl        11.89120        0.84350       -4.83790
C         11.13820        2.79450       -6.62510
Cl         9.79000        1.84690       -7.11370
C         11.29120        5.33610       -9.26500
C         10.55020        6.05130      -10.23610
C          9.16520        6.22550      -10.08030
C          8.36700        6.88790      -11.09880
S          7.31900        8.21870      -10.70820
C          6.79320        8.38660      -12.34790
C          5.85090        9.46710      -12.74940
C          6.59970       10.77410      -13.02060
C          7.40450        7.46060      -13.13970
C          8.29410        6.60620      -12.43480
Cl         9.12060        5.30590      -13.19180
Cl         7.13270        7.31510      -14.82810
C          8.59510        5.73260       -8.91380
S          6.91440        5.83950       -8.46910
C         11.38760        6.52490      -11.28850
C         12.67610        6.15830      -11.13750
S         12.97000        5.22250       -9.71220
H         -1.65580      -16.01450        1.91630
H         -0.10960      -14.06000        2.66470
H          3.80910       -9.52710        2.47150
H          4.45000      -10.43110        3.85740
H          3.45580       -8.75140        5.40760
H          2.79320       -7.86450        4.03110
H          4.54390       -7.97020        4.25640
H         -9.11390      -14.50220        2.41360
H         -9.80400      -13.52170        1.10510
H        -10.27880      -11.69060        2.72760
H        -11.06700      -13.19220        3.22150
H         -9.59000      -12.66050        4.03310
H         -5.47500       -9.32350        2.74070
H         -2.32040       -6.07870        4.30480
H          1.97530       -2.96310        4.02850
H          2.24260       -3.26810        5.75160
H          1.64350       -5.67360        5.40210
H          2.99720       -5.19300        4.37390
H          1.37650       -5.35400        3.68450
H        -11.77790       -4.56490        1.24450
H        -10.80240       -3.32040        0.43990
H        -12.83620       -2.32470        1.46310
H        -11.38040       -1.70120        2.24700
H        -12.35460       -2.94010        3.04710
H         -7.79360       -1.47290        4.31360
H         -8.96190       -0.87800        6.45570
H         -7.39030       -1.19780        7.18250
H         -8.58910       -0.22560        8.04690
H         -8.98090        2.03880        7.52500
H         -7.69850        5.28900        6.91140
H         -8.96350        4.30770        7.64180
H         -8.90520        5.17560        4.71100
H        -10.15830        4.19150        5.46380
H         -9.92610        5.86590        5.97590
H         -5.03620        4.41470        4.68530
H         -6.36720        5.35470        5.35960
H         -6.51880        4.62630        3.76190
H         -3.31370        1.65200        5.24380
H          1.52230        0.80110        8.10380
H          0.17560        1.92540        8.36440
H          2.35620        3.05670        8.74320
H          2.86570        2.65040        7.10130
H          1.52290        3.76940        7.35680
H         -6.34070        4.70320       -3.83790
H         -6.60550        5.62190       -2.34280
H         -7.90210        2.93840       -3.02780
H         -8.70370        4.51210       -3.07150
H         -8.15590        3.84000       -1.53050
H         -1.27960        3.20980       -1.39780
H          0.43610        4.20490       -2.61100
H         -0.41500        8.42930       -6.72250
H         -1.67120        7.29380       -7.25190
H         -0.46750        8.28580       -9.19810
H          1.06440        7.65800       -8.57700
H         -0.19350        6.54260       -9.11800
H          9.77830        0.45030       -2.61100
H          9.92470        0.58480       -0.84820
H          9.61300       -1.78440       -1.54780
H          8.23960       -1.23850       -0.57930
H          8.08880       -1.36100       -2.33540
H          7.29410        3.76410       -4.45510
H          8.94060        4.20270       -5.94320
H         15.11530        3.58820       -4.87780
H         14.49790        1.99610       -4.39590
H         12.99760        3.08150       -2.72890
H         14.68540        3.50890       -2.43130
H         13.60370        4.67000       -3.20870
H          5.12150        9.62470      -11.95330
H          5.32360        9.15400      -13.65230
H          7.32090       10.63590      -13.82210
H          5.89930       11.55180      -13.31280
H          7.12910       11.09740      -12.12750
H         11.03020        7.12250      -12.10630
H         13.50400        6.38170      -11.78150
