
  xtb     03082210063D
 energy: -470.940003581344 gnorm: 0.000467778822 xtb: 6.4.1 (unknown)
269296  0     0  0            999 V2000
  -15.1521   -8.8632    9.2349 C   0  0  0  0  0  0  0  0  0  0  0  0
  -14.0396   -9.4715    8.7775 C   0  0  0  0  0  0  0  0  0  0  0  0
  -13.2797   -8.6484    7.8936 C   0  0  0  0  0  0  0  0  0  0  0  0
  -12.0610   -8.9445    7.2658 C   0  0  0  0  0  0  0  0  0  0  0  0
  -11.4146  -10.2559    7.4046 C   0  0  0  0  0  0  0  0  0  0  0  0
  -10.0821  -10.3563    7.8016 C   0  0  0  0  0  0  0  0  0  0  0  0
   -9.4737  -11.5869    7.9127 C   0  0  0  0  0  0  0  0  0  0  0  0
  -10.1632  -12.7672    7.6348 C   0  0  0  0  0  0  0  0  0  0  0  0
   -9.2796  -14.2791    7.8483 S   0  0  0  0  0  0  0  0  0  0  0  0
  -10.0185  -15.4125    6.6041 C   0  0  0  0  0  0  0  0  0  0  0  0
   -9.0136  -16.5003    6.2804 C   0  0  0  0  0  0  0  0  0  0  0  0
  -11.4989  -12.6523    7.2606 C   0  0  0  0  0  0  0  0  0  0  0  0
  -12.2491  -13.7503    7.0101 F   0  0  0  0  0  0  0  0  0  0  0  0
  -12.1178  -11.4247    7.1354 C   0  0  0  0  0  0  0  0  0  0  0  0
  -11.4901   -7.9334    6.5074 C   0  0  0  0  0  0  0  0  0  0  0  0
  -12.0809   -6.6561    6.3484 C   0  0  0  0  0  0  0  0  0  0  0  0
  -13.3050   -6.3623    6.9697 C   0  0  0  0  0  0  0  0  0  0  0  0
  -13.9296   -5.0431    6.8170 C   0  0  0  0  0  0  0  0  0  0  0  0
  -15.2611   -4.9170    6.4259 C   0  0  0  0  0  0  0  0  0  0  0  0
  -15.8185   -3.6719    6.2253 C   0  0  0  0  0  0  0  0  0  0  0  0
  -15.0794   -2.5079    6.4203 C   0  0  0  0  0  0  0  0  0  0  0  0
  -15.8831   -0.9567    6.1348 S   0  0  0  0  0  0  0  0  0  0  0  0
  -14.6252   -0.0070    5.1999 C   0  0  0  0  0  0  0  0  0  0  0  0
  -14.2014   -0.7236    3.9334 C   0  0  0  0  0  0  0  0  0  0  0  0
  -13.7682   -2.6474    6.8652 C   0  0  0  0  0  0  0  0  0  0  0  0
  -13.1902   -3.8866    7.0480 C   0  0  0  0  0  0  0  0  0  0  0  0
  -13.0095   -1.5616    7.1310 F   0  0  0  0  0  0  0  0  0  0  0  0
  -13.8795   -7.3770    7.7222 C   0  0  0  0  0  0  0  0  0  0  0  0
  -15.3626   -7.2542    8.6331 S   0  0  0  0  0  0  0  0  0  0  0  0
  -11.3099   -5.8224    5.4982 C   0  0  0  0  0  0  0  0  0  0  0  0
  -10.1808   -6.4183    5.0249 C   0  0  0  0  0  0  0  0  0  0  0  0
  -10.0058   -8.0659    5.5983 S   0  0  0  0  0  0  0  0  0  0  0  0
   -9.1751   -5.8327    4.1999 C   0  0  0  0  0  0  0  0  0  0  0  0
   -8.1345   -6.4521    3.5767 C   0  0  0  0  0  0  0  0  0  0  0  0
   -7.2757   -5.5608    2.8846 C   0  0  0  0  0  0  0  0  0  0  0  0
   -6.1343   -5.8694    2.1276 C   0  0  0  0  0  0  0  0  0  0  0  0
   -5.6296   -7.2407    1.9928 C   0  0  0  0  0  0  0  0  0  0  0  0
   -5.4163   -8.0478    3.1099 C   0  0  0  0  0  0  0  0  0  0  0  0
   -4.8804   -9.3093    2.9714 C   0  0  0  0  0  0  0  0  0  0  0  0
   -4.5463   -9.8254    1.7188 C   0  0  0  0  0  0  0  0  0  0  0  0
   -3.8782  -11.4574    1.6724 S   0  0  0  0  0  0  0  0  0  0  0  0
   -2.7640  -11.4430    0.2100 C   0  0  0  0  0  0  0  0  0  0  0  0
   -1.7184  -12.5271    0.3832 C   0  0  0  0  0  0  0  0  0  0  0  0
   -4.8014   -9.0234    0.6104 C   0  0  0  0  0  0  0  0  0  0  0  0
   -4.5600   -9.4704   -0.6427 F   0  0  0  0  0  0  0  0  0  0  0  0
   -5.3160   -7.7495    0.7370 C   0  0  0  0  0  0  0  0  0  0  0  0
   -5.4739   -4.8026    1.5372 C   0  0  0  0  0  0  0  0  0  0  0  0
   -5.8842   -3.4544    1.6809 C   0  0  0  0  0  0  0  0  0  0  0  0
   -7.0412   -3.1482    2.4159 C   0  0  0  0  0  0  0  0  0  0  0  0
   -7.5054   -1.7633    2.5652 C   0  0  0  0  0  0  0  0  0  0  0  0
   -7.7771   -1.2298    3.8234 C   0  0  0  0  0  0  0  0  0  0  0  0
   -8.2108    0.0726    3.9548 C   0  0  0  0  0  0  0  0  0  0  0  0
   -8.3910    0.8891    2.8421 C   0  0  0  0  0  0  0  0  0  0  0  0
   -8.9002    2.5658    3.1092 S   0  0  0  0  0  0  0  0  0  0  0  0
  -10.2746    2.7597    1.9149 C   0  0  0  0  0  0  0  0  0  0  0  0
  -11.4027    1.7889    2.2027 C   0  0  0  0  0  0  0  0  0  0  0  0
   -8.1017    0.3490    1.5928 C   0  0  0  0  0  0  0  0  0  0  0  0
   -7.6748   -0.9550    1.4451 C   0  0  0  0  0  0  0  0  0  0  0  0
   -8.2303    1.0946    0.4744 F   0  0  0  0  0  0  0  0  0  0  0  0
   -7.7042   -4.2146    3.0032 C   0  0  0  0  0  0  0  0  0  0  0  0
   -9.1640   -4.0966    3.9503 S   0  0  0  0  0  0  0  0  0  0  0  0
   -4.9626   -2.5549    1.0864 C   0  0  0  0  0  0  0  0  0  0  0  0
   -3.8998   -3.1732    0.4997 C   0  0  0  0  0  0  0  0  0  0  0  0
   -3.9905   -4.9199    0.6284 S   0  0  0  0  0  0  0  0  0  0  0  0
   -2.7608   -2.5799   -0.1179 C   0  0  0  0  0  0  0  0  0  0  0  0
   -1.7119   -3.2296   -0.6967 C   0  0  0  0  0  0  0  0  0  0  0  0
   -0.6822   -2.3640   -1.1406 C   0  0  0  0  0  0  0  0  0  0  0  0
    0.5556   -2.7198   -1.7020 C   0  0  0  0  0  0  0  0  0  0  0  0
    0.8423   -4.1183   -2.0416 C   0  0  0  0  0  0  0  0  0  0  0  0
   -0.0701   -4.8564   -2.7964 C   0  0  0  0  0  0  0  0  0  0  0  0
    0.1649   -6.1825   -3.0848 C   0  0  0  0  0  0  0  0  0  0  0  0
    1.3172   -6.8251   -2.6353 C   0  0  0  0  0  0  0  0  0  0  0  0
    1.5208   -8.5291   -3.0508 S   0  0  0  0  0  0  0  0  0  0  0  0
    2.3124   -9.2327   -1.5465 C   0  0  0  0  0  0  0  0  0  0  0  0
    1.8811  -10.6782   -1.3955 C   0  0  0  0  0  0  0  0  0  0  0  0
    2.2408   -6.0653   -1.9239 C   0  0  0  0  0  0  0  0  0  0  0  0
    3.4013   -6.6139   -1.5001 F   0  0  0  0  0  0  0  0  0  0  0  0
    2.0126   -4.7384   -1.6185 C   0  0  0  0  0  0  0  0  0  0  0  0
    1.4620   -1.6912   -1.9039 C   0  0  0  0  0  0  0  0  0  0  0  0
    1.1712   -0.3327   -1.6153 C   0  0  0  0  0  0  0  0  0  0  0  0
   -0.0836    0.0262   -1.0946 C   0  0  0  0  0  0  0  0  0  0  0  0
   -0.4270    1.4151   -0.7671 C   0  0  0  0  0  0  0  0  0  0  0  0
    0.4022    2.2009    0.0323 C   0  0  0  0  0  0  0  0  0  0  0  0
    0.0376    3.4862    0.3701 C   0  0  0  0  0  0  0  0  0  0  0  0
   -1.1558    4.0478   -0.0836 C   0  0  0  0  0  0  0  0  0  0  0  0
   -1.4948    5.7130    0.3980 S   0  0  0  0  0  0  0  0  0  0  0  0
   -3.3089    5.7593    0.6468 C   0  0  0  0  0  0  0  0  0  0  0  0
   -3.7747    4.7339    1.6604 C   0  0  0  0  0  0  0  0  0  0  0  0
   -1.9550    3.2636   -0.9106 C   0  0  0  0  0  0  0  0  0  0  0  0
   -1.6158    1.9657   -1.2338 C   0  0  0  0  0  0  0  0  0  0  0  0
   -3.0992    3.7510   -1.4378 F   0  0  0  0  0  0  0  0  0  0  0  0
   -0.9797   -1.0068   -0.8673 C   0  0  0  0  0  0  0  0  0  0  0  0
   -2.5486   -0.8397   -0.1192 S   0  0  0  0  0  0  0  0  0  0  0  0
    2.2619    0.5173   -1.9244 C   0  0  0  0  0  0  0  0  0  0  0  0
    3.3534   -0.1467   -2.4045 C   0  0  0  0  0  0  0  0  0  0  0  0
    3.0722   -1.8694   -2.5449 S   0  0  0  0  0  0  0  0  0  0  0  0
    4.6402    0.3939   -2.7062 C   0  0  0  0  0  0  0  0  0  0  0  0
    5.0808    1.6652   -2.4790 C   0  0  0  0  0  0  0  0  0  0  0  0
    6.4481    1.8553   -2.7981 C   0  0  0  0  0  0  0  0  0  0  0  0
    7.2206    3.0156   -2.6258 C   0  0  0  0  0  0  0  0  0  0  0  0
    6.6294    4.2323   -2.0522 C   0  0  0  0  0  0  0  0  0  0  0  0
    6.6635    5.4352   -2.7499 C   0  0  0  0  0  0  0  0  0  0  0  0
    6.0599    6.5620   -2.2326 C   0  0  0  0  0  0  0  0  0  0  0  0
    5.4294    6.5362   -0.9943 C   0  0  0  0  0  0  0  0  0  0  0  0
    4.6345    8.0139   -0.4186 S   0  0  0  0  0  0  0  0  0  0  0  0
    5.4047    8.2326    1.2267 C   0  0  0  0  0  0  0  0  0  0  0  0
    6.8925    8.4993    1.1086 C   0  0  0  0  0  0  0  0  0  0  0  0
    5.4092    5.3298   -0.3026 C   0  0  0  0  0  0  0  0  0  0  0  0
    4.7948    5.2370    0.8966 F   0  0  0  0  0  0  0  0  0  0  0  0
    5.9974    4.1905   -0.8131 C   0  0  0  0  0  0  0  0  0  0  0  0
    8.5501    2.9414   -3.0022 C   0  0  0  0  0  0  0  0  0  0  0  0
    9.1501    1.7593   -3.5046 C   0  0  0  0  0  0  0  0  0  0  0  0
    8.3789    0.5965   -3.6756 C   0  0  0  0  0  0  0  0  0  0  0  0
    8.9552   -0.6603   -4.1672 C   0  0  0  0  0  0  0  0  0  0  0  0
    8.3257   -1.3783   -5.1812 C   0  0  0  0  0  0  0  0  0  0  0  0
    8.8415   -2.5754   -5.6356 C   0  0  0  0  0  0  0  0  0  0  0  0
   10.0026   -3.1064   -5.0848 C   0  0  0  0  0  0  0  0  0  0  0  0
   10.7591   -4.6163   -5.5862 S   0  0  0  0  0  0  0  0  0  0  0  0
    9.3885   -5.5500   -6.3527 C   0  0  0  0  0  0  0  0  0  0  0  0
    8.3122   -5.9173   -5.3497 C   0  0  0  0  0  0  0  0  0  0  0  0
   10.6303   -2.3700   -4.0789 C   0  0  0  0  0  0  0  0  0  0  0  0
   10.1288   -1.1736   -3.6181 C   0  0  0  0  0  0  0  0  0  0  0  0
   11.7633   -2.8465   -3.5260 F   0  0  0  0  0  0  0  0  0  0  0  0
    7.0393    0.6818   -3.3262 C   0  0  0  0  0  0  0  0  0  0  0  0
    5.8937   -0.6312   -3.3730 S   0  0  0  0  0  0  0  0  0  0  0  0
   10.5298    1.9444   -3.7566 C   0  0  0  0  0  0  0  0  0  0  0  0
   11.0009    3.1862   -3.4312 C   0  0  0  0  0  0  0  0  0  0  0  0
    9.7210    4.2236   -2.8352 S   0  0  0  0  0  0  0  0  0  0  0  0
   12.3559    3.6048   -3.5770 C   0  0  0  0  0  0  0  0  0  0  0  0
   13.4176    2.5093   -4.4436 S   0  0  0  0  0  0  0  0  0  0  0  0
   14.7668    3.5534   -4.2877 C   0  0  0  0  0  0  0  0  0  0  0  0
   14.4241    4.6735   -3.6033 C   0  0  0  0  0  0  0  0  0  0  0  0
   13.0553    4.7275   -3.1717 C   0  0  0  0  0  0  0  0  0  0  0  0
   12.8138    5.9408   -2.4468 C   0  0  0  0  0  0  0  0  0  0  0  0
   13.9569    6.7287   -2.4012 C   0  0  0  0  0  0  0  0  0  0  0  0
   15.3743    6.0768   -3.1644 S   0  0  0  0  0  0  0  0  0  0  0  0
   13.7364    8.2215   -1.5886 S   0  0  0  0  0  0  0  0  0  0  0  0
   12.0440    7.8170   -1.3112 C   0  0  0  0  0  0  0  0  0  0  0  0
   11.7370    6.5748   -1.7856 C   0  0  0  0  0  0  0  0  0  0  0  0
   11.2260    8.8064   -0.6545 C   0  0  0  0  0  0  0  0  0  0  0  0
   10.0197    9.2675   -1.0327 C   0  0  0  0  0  0  0  0  0  0  0  0
    9.2415    8.9643   -2.1974 C   0  0  0  0  0  0  0  0  0  0  0  0
    8.1513    9.6808   -2.6073 C   0  0  0  0  0  0  0  0  0  0  0  0
    7.5790    9.2284   -3.8247 C   0  0  0  0  0  0  0  0  0  0  0  0
    6.4576    9.7248   -4.5109 C   0  0  0  0  0  0  0  0  0  0  0  0
    5.6933   10.8693   -3.9999 C   0  0  0  0  0  0  0  0  0  0  0  0
    5.4176   11.9680   -4.8124 C   0  0  0  0  0  0  0  0  0  0  0  0
    4.7259   13.0507   -4.3161 C   0  0  0  0  0  0  0  0  0  0  0  0
    4.2692   13.0821   -2.9980 C   0  0  0  0  0  0  0  0  0  0  0  0
    3.3705   14.5175   -2.5032 S   0  0  0  0  0  0  0  0  0  0  0  0
    3.6855   14.6560   -0.6975 C   0  0  0  0  0  0  0  0  0  0  0  0
    3.4396   16.0899   -0.2712 C   0  0  0  0  0  0  0  0  0  0  0  0
    4.5214   11.9630   -2.2100 C   0  0  0  0  0  0  0  0  0  0  0  0
    4.0784   11.8947   -0.9334 F   0  0  0  0  0  0  0  0  0  0  0  0
    5.2301   10.8799   -2.6883 C   0  0  0  0  0  0  0  0  0  0  0  0
    6.1127    9.0734   -5.6878 C   0  0  0  0  0  0  0  0  0  0  0  0
    6.7987    7.9359   -6.1824 C   0  0  0  0  0  0  0  0  0  0  0  0
    7.9156    7.4388   -5.4977 C   0  0  0  0  0  0  0  0  0  0  0  0
    8.6401    6.2288   -5.9117 C   0  0  0  0  0  0  0  0  0  0  0  0
   10.0317    6.2238   -6.0110 C   0  0  0  0  0  0  0  0  0  0  0  0
   10.7076    5.0737   -6.3452 C   0  0  0  0  0  0  0  0  0  0  0  0
   10.0401    3.8689   -6.5861 C   0  0  0  0  0  0  0  0  0  0  0  0
   11.0847    2.5223   -7.0302 S   0  0  0  0  0  0  0  0  0  0  0  0
   10.0183    1.0438   -7.2151 C   0  0  0  0  0  0  0  0  0  0  0  0
   10.9170   -0.1560   -7.4432 C   0  0  0  0  0  0  0  0  0  0  0  0
    8.6542    3.8857   -6.4710 C   0  0  0  0  0  0  0  0  0  0  0  0
    7.9622    5.0383   -6.1509 C   0  0  0  0  0  0  0  0  0  0  0  0
    7.9111    2.7685   -6.6681 F   0  0  0  0  0  0  0  0  0  0  0  0
    8.2917    8.1237   -4.3504 C   0  0  0  0  0  0  0  0  0  0  0  0
    9.6242    7.6828   -3.3261 S   0  0  0  0  0  0  0  0  0  0  0  0
    6.2175    7.4571   -7.3940 C   0  0  0  0  0  0  0  0  0  0  0  0
    5.1449    8.1762   -7.7811 C   0  0  0  0  0  0  0  0  0  0  0  0
    4.7621    9.4840   -6.7147 S   0  0  0  0  0  0  0  0  0  0  0  0
  -15.8897   -9.2571    9.9065 H   0  0  0  0  0  0  0  0  0  0  0  0
  -13.7417  -10.4640    9.0624 H   0  0  0  0  0  0  0  0  0  0  0  0
   -9.5247   -9.4624    8.0348 H   0  0  0  0  0  0  0  0  0  0  0  0
   -8.4422  -11.6606    8.2200 H   0  0  0  0  0  0  0  0  0  0  0  0
  -10.2506  -14.8160    5.7232 H   0  0  0  0  0  0  0  0  0  0  0  0
  -10.9335  -15.8321    7.0194 H   0  0  0  0  0  0  0  0  0  0  0  0
   -8.7628  -17.0666    7.1745 H   0  0  0  0  0  0  0  0  0  0  0  0
   -8.0998  -16.0690    5.8777 H   0  0  0  0  0  0  0  0  0  0  0  0
   -9.4349  -17.1806    5.5434 H   0  0  0  0  0  0  0  0  0  0  0  0
  -13.1486  -11.3936    6.8171 H   0  0  0  0  0  0  0  0  0  0  0  0
  -15.8513   -5.8015    6.2440 H   0  0  0  0  0  0  0  0  0  0  0  0
  -16.8430   -3.5781    5.9009 H   0  0  0  0  0  0  0  0  0  0  0  0
  -15.1370    0.9275    4.9707 H   0  0  0  0  0  0  0  0  0  0  0  0
  -13.7806    0.2019    5.8528 H   0  0  0  0  0  0  0  0  0  0  0  0
  -15.0679   -0.9510    3.3159 H   0  0  0  0  0  0  0  0  0  0  0  0
  -13.6900   -1.6560    4.1671 H   0  0  0  0  0  0  0  0  0  0  0  0
  -13.5214   -0.0936    3.3637 H   0  0  0  0  0  0  0  0  0  0  0  0
  -12.1721   -3.9380    7.4020 H   0  0  0  0  0  0  0  0  0  0  0  0
  -11.5877   -4.8197    5.2275 H   0  0  0  0  0  0  0  0  0  0  0  0
   -7.9968   -7.5182    3.6013 H   0  0  0  0  0  0  0  0  0  0  0  0
   -5.6362   -7.6662    4.0952 H   0  0  0  0  0  0  0  0  0  0  0  0
   -4.6998   -9.9236    3.8398 H   0  0  0  0  0  0  0  0  0  0  0  0
   -2.3061  -10.4560    0.1637 H   0  0  0  0  0  0  0  0  0  0  0  0
   -3.3640  -11.6145   -0.6823 H   0  0  0  0  0  0  0  0  0  0  0  0
   -2.1924  -13.5013    0.4790 H   0  0  0  0  0  0  0  0  0  0  0  0
   -1.0605  -12.5453   -0.4832 H   0  0  0  0  0  0  0  0  0  0  0  0
   -1.1215  -12.3456    1.2742 H   0  0  0  0  0  0  0  0  0  0  0  0
   -5.4949   -7.1752   -0.1585 H   0  0  0  0  0  0  0  0  0  0  0  0
   -7.6343   -1.8363    4.7041 H   0  0  0  0  0  0  0  0  0  0  0  0
   -8.4177    0.4837    4.9304 H   0  0  0  0  0  0  0  0  0  0  0  0
  -10.5958    3.7908    2.0597 H   0  0  0  0  0  0  0  0  0  0  0  0
   -9.8857    2.6477    0.9053 H   0  0  0  0  0  0  0  0  0  0  0  0
  -12.2308    1.9749    1.5212 H   0  0  0  0  0  0  0  0  0  0  0  0
  -11.0697    0.7601    2.0707 H   0  0  0  0  0  0  0  0  0  0  0  0
  -11.7546    1.9107    3.2254 H   0  0  0  0  0  0  0  0  0  0  0  0
   -7.4835   -1.3321    0.4521 H   0  0  0  0  0  0  0  0  0  0  0  0
   -5.0638   -1.4848    1.1204 H   0  0  0  0  0  0  0  0  0  0  0  0
   -1.6625   -4.3016   -0.7679 H   0  0  0  0  0  0  0  0  0  0  0  0
   -0.9660   -4.3795   -3.1634 H   0  0  0  0  0  0  0  0  0  0  0  0
   -0.5470   -6.7529   -3.6609 H   0  0  0  0  0  0  0  0  0  0  0  0
    1.9800   -8.6344   -0.6998 H   0  0  0  0  0  0  0  0  0  0  0  0
    3.3927   -9.1488   -1.6552 H   0  0  0  0  0  0  0  0  0  0  0  0
    0.7988  -10.7433   -1.3065 H   0  0  0  0  0  0  0  0  0  0  0  0
    2.3336  -11.1064   -0.5036 H   0  0  0  0  0  0  0  0  0  0  0  0
    2.1917  -11.2618   -2.2591 H   0  0  0  0  0  0  0  0  0  0  0  0
    2.7515   -4.2059   -1.0406 H   0  0  0  0  0  0  0  0  0  0  0  0
    1.3182    1.7848    0.4233 H   0  0  0  0  0  0  0  0  0  0  0  0
    0.6739    4.0853    1.0028 H   0  0  0  0  0  0  0  0  0  0  0  0
   -3.4795    6.7738    1.0077 H   0  0  0  0  0  0  0  0  0  0  0  0
   -3.8032    5.6378   -0.3144 H   0  0  0  0  0  0  0  0  0  0  0  0
   -3.2471    4.8612    2.6035 H   0  0  0  0  0  0  0  0  0  0  0  0
   -4.8417    4.8531    1.8373 H   0  0  0  0  0  0  0  0  0  0  0  0
   -3.5999    3.7217    1.3005 H   0  0  0  0  0  0  0  0  0  0  0  0
   -2.2749    1.4052   -1.8785 H   0  0  0  0  0  0  0  0  0  0  0  0
    2.2296    1.5838   -1.8001 H   0  0  0  0  0  0  0  0  0  0  0  0
    4.4542    2.4452   -2.0875 H   0  0  0  0  0  0  0  0  0  0  0  0
    7.1541    5.4800   -3.7084 H   0  0  0  0  0  0  0  0  0  0  0  0
    6.0621    7.4848   -2.7894 H   0  0  0  0  0  0  0  0  0  0  0  0
    5.1921    7.3538    1.8314 H   0  0  0  0  0  0  0  0  0  0  0  0
    4.8810    9.0904    1.6473 H   0  0  0  0  0  0  0  0  0  0  0  0
    7.4032    7.6595    0.6390 H   0  0  0  0  0  0  0  0  0  0  0  0
    7.0709    9.3876    0.5068 H   0  0  0  0  0  0  0  0  0  0  0  0
    7.3197    8.6552    2.0972 H   0  0  0  0  0  0  0  0  0  0  0  0
    5.9621    3.2784   -0.2372 H   0  0  0  0  0  0  0  0  0  0  0  0
    7.4328   -0.9830   -5.6408 H   0  0  0  0  0  0  0  0  0  0  0  0
    8.3315   -3.0927   -6.4321 H   0  0  0  0  0  0  0  0  0  0  0  0
    9.8794   -6.4420   -6.7418 H   0  0  0  0  0  0  0  0  0  0  0  0
    8.9970   -4.9772   -7.1926 H   0  0  0  0  0  0  0  0  0  0  0  0
    7.8469   -5.0275   -4.9303 H   0  0  0  0  0  0  0  0  0  0  0  0
    7.5427   -6.5144   -5.8352 H   0  0  0  0  0  0  0  0  0  0  0  0
    8.7402   -6.4969   -4.5353 H   0  0  0  0  0  0  0  0  0  0  0  0
   10.6354   -0.6690   -2.8106 H   0  0  0  0  0  0  0  0  0  0  0  0
   11.1673    1.1807   -4.1642 H   0  0  0  0  0  0  0  0  0  0  0  0
   15.7148    3.2823   -4.7044 H   0  0  0  0  0  0  0  0  0  0  0  0
   10.7838    6.1136   -1.6187 H   0  0  0  0  0  0  0  0  0  0  0  0
   11.6949    9.2843    0.1974 H   0  0  0  0  0  0  0  0  0  0  0  0
    9.5760   10.0416   -0.4181 H   0  0  0  0  0  0  0  0  0  0  0  0
    7.7760   10.5302   -2.0649 H   0  0  0  0  0  0  0  0  0  0  0  0
    5.7733   11.9843   -5.8309 H   0  0  0  0  0  0  0  0  0  0  0  0
    4.5268   13.9053   -4.9437 H   0  0  0  0  0  0  0  0  0  0  0  0
    3.0190   13.9703   -0.1768 H   0  0  0  0  0  0  0  0  0  0  0  0
    4.7214   14.3669   -0.5266 H   0  0  0  0  0  0  0  0  0  0  0  0
    3.6222   16.1924    0.7964 H   0  0  0  0  0  0  0  0  0  0  0  0
    4.1012   16.7669   -0.8070 H   0  0  0  0  0  0  0  0  0  0  0  0
    2.4114   16.3777   -0.4783 H   0  0  0  0  0  0  0  0  0  0  0  0
    5.3685   10.0305   -2.0372 H   0  0  0  0  0  0  0  0  0  0  0  0
   10.5841    7.1352   -5.8451 H   0  0  0  0  0  0  0  0  0  0  0  0
   11.7833    5.0806   -6.4327 H   0  0  0  0  0  0  0  0  0  0  0  0
    9.3541    1.2077   -8.0625 H   0  0  0  0  0  0  0  0  0  0  0  0
    9.4377    0.9275   -6.3032 H   0  0  0  0  0  0  0  0  0  0  0  0
   10.3095   -1.0496   -7.5652 H   0  0  0  0  0  0  0  0  0  0  0  0
   11.5818   -0.3036   -6.5950 H   0  0  0  0  0  0  0  0  0  0  0  0
   11.5232   -0.0175   -8.3355 H   0  0  0  0  0  0  0  0  0  0  0  0
    6.8864    4.9816   -6.0733 H   0  0  0  0  0  0  0  0  0  0  0  0
    6.6085    6.6215   -7.9458 H   0  0  0  0  0  0  0  0  0  0  0  0
    4.5333    8.0308   -8.6502 H   0  0  0  0  0  0  0  0  0  0  0  0
  1  2  2  0  0  0  0
  2  3  1  0  0  0  0
  3  4  2  0  0  0  0
  4  5  1  0  0  0  0
  5  6  2  0  0  0  0
  6  7  1  0  0  0  0
  7  8  2  0  0  0  0
  8  9  1  0  0  0  0
  9 10  1  0  0  0  0
 10 11  1  0  0  0  0
  8 12  1  0  0  0  0
 12 13  1  0  0  0  0
 12 14  2  0  0  0  0
  4 15  1  0  0  0  0
 15 16  2  0  0  0  0
 16 17  1  0  0  0  0
 17 18  1  0  0  0  0
 18 19  2  0  0  0  0
 19 20  1  0  0  0  0
 20 21  2  0  0  0  0
 21 22  1  0  0  0  0
 22 23  1  0  0  0  0
 23 24  1  0  0  0  0
 21 25  1  0  0  0  0
 25 26  2  0  0  0  0
 25 27  1  0  0  0  0
 17 28  2  0  0  0  0
 28 29  1  0  0  0  0
 16 30  1  0  0  0  0
 30 31  2  0  0  0  0
 31 32  1  0  0  0  0
 31 33  1  0  0  0  0
 33 34  2  0  0  0  0
 34 35  1  0  0  0  0
 35 36  2  0  0  0  0
 36 37  1  0  0  0  0
 37 38  2  0  0  0  0
 38 39  1  0  0  0  0
 39 40  2  0  0  0  0
 40 41  1  0  0  0  0
 41 42  1  0  0  0  0
 42 43  1  0  0  0  0
 40 44  1  0  0  0  0
 44 45  1  0  0  0  0
 44 46  2  0  0  0  0
 36 47  1  0  0  0  0
 47 48  2  0  0  0  0
 48 49  1  0  0  0  0
 49 50  1  0  0  0  0
 50 51  2  0  0  0  0
 51 52  1  0  0  0  0
 52 53  2  0  0  0  0
 53 54  1  0  0  0  0
 54 55  1  0  0  0  0
 55 56  1  0  0  0  0
 53 57  1  0  0  0  0
 57 58  2  0  0  0  0
 57 59  1  0  0  0  0
 49 60  2  0  0  0  0
 60 61  1  0  0  0  0
 48 62  1  0  0  0  0
 62 63  2  0  0  0  0
 63 64  1  0  0  0  0
 63 65  1  0  0  0  0
 65 66  2  0  0  0  0
 66 67  1  0  0  0  0
 67 68  2  0  0  0  0
 68 69  1  0  0  0  0
 69 70  2  0  0  0  0
 70 71  1  0  0  0  0
 71 72  2  0  0  0  0
 72 73  1  0  0  0  0
 73 74  1  0  0  0  0
 74 75  1  0  0  0  0
 72 76  1  0  0  0  0
 76 77  1  0  0  0  0
 76 78  2  0  0  0  0
 68 79  1  0  0  0  0
 79 80  2  0  0  0  0
 80 81  1  0  0  0  0
 81 82  1  0  0  0  0
 82 83  2  0  0  0  0
 83 84  1  0  0  0  0
 84 85  2  0  0  0  0
 85 86  1  0  0  0  0
 86 87  1  0  0  0  0
 87 88  1  0  0  0  0
 85 89  1  0  0  0  0
 89 90  2  0  0  0  0
 89 91  1  0  0  0  0
 81 92  2  0  0  0  0
 92 93  1  0  0  0  0
 80 94  1  0  0  0  0
 94 95  2  0  0  0  0
 95 96  1  0  0  0  0
 95 97  1  0  0  0  0
 97 98  2  0  0  0  0
 98 99  1  0  0  0  0
 99100  2  0  0  0  0
100101  1  0  0  0  0
101102  2  0  0  0  0
102103  1  0  0  0  0
103104  2  0  0  0  0
104105  1  0  0  0  0
105106  1  0  0  0  0
106107  1  0  0  0  0
104108  1  0  0  0  0
108109  1  0  0  0  0
108110  2  0  0  0  0
100111  1  0  0  0  0
111112  2  0  0  0  0
112113  1  0  0  0  0
113114  1  0  0  0  0
114115  2  0  0  0  0
115116  1  0  0  0  0
116117  2  0  0  0  0
117118  1  0  0  0  0
118119  1  0  0  0  0
119120  1  0  0  0  0
117121  1  0  0  0  0
121122  2  0  0  0  0
121123  1  0  0  0  0
113124  2  0  0  0  0
124125  1  0  0  0  0
112126  1  0  0  0  0
126127  2  0  0  0  0
127128  1  0  0  0  0
127129  1  0  0  0  0
129130  1  0  0  0  0
130131  1  0  0  0  0
131132  2  0  0  0  0
132133  1  0  0  0  0
133134  1  0  0  0  0
134135  2  0  0  0  0
135136  1  0  0  0  0
135137  1  0  0  0  0
137138  1  0  0  0  0
138139  2  0  0  0  0
138140  1  0  0  0  0
140141  2  0  0  0  0
141142  1  0  0  0  0
142143  2  0  0  0  0
143144  1  0  0  0  0
144145  2  0  0  0  0
145146  1  0  0  0  0
146147  2  0  0  0  0
147148  1  0  0  0  0
148149  2  0  0  0  0
149150  1  0  0  0  0
150151  1  0  0  0  0
151152  1  0  0  0  0
149153  1  0  0  0  0
153154  1  0  0  0  0
153155  2  0  0  0  0
145156  1  0  0  0  0
156157  2  0  0  0  0
157158  1  0  0  0  0
158159  1  0  0  0  0
159160  2  0  0  0  0
160161  1  0  0  0  0
161162  2  0  0  0  0
162163  1  0  0  0  0
163164  1  0  0  0  0
164165  1  0  0  0  0
162166  1  0  0  0  0
166167  2  0  0  0  0
166168  1  0  0  0  0
158169  2  0  0  0  0
169170  1  0  0  0  0
157171  1  0  0  0  0
171172  2  0  0  0  0
172173  1  0  0  0  0
 29  1  1  0  0  0  0
 61 33  1  0  0  0  0
 93 65  1  0  0  0  0
125 97  1  0  0  0  0
133129  2  0  0  0  0
139134  1  0  0  0  0
170142  1  0  0  0  0
 28  3  1  0  0  0  0
 60 35  1  0  0  0  0
 92 67  1  0  0  0  0
124 99  1  0  0  0  0
136132  1  0  0  0  0
169144  1  0  0  0  0
 14  5  1  0  0  0  0
 32 15  1  0  0  0  0
 46 37  1  0  0  0  0
 64 47  1  0  0  0  0
 78 69  1  0  0  0  0
 96 79  1  0  0  0  0
110101  1  0  0  0  0
128111  1  0  0  0  0
155146  1  0  0  0  0
173156  1  0  0  0  0
 26 18  1  0  0  0  0
 58 50  1  0  0  0  0
 90 82  1  0  0  0  0
122114  1  0  0  0  0
167159  1  0  0  0  0
  1174  1  0  0  0  0
  2175  1  0  0  0  0
  6176  1  0  0  0  0
  7177  1  0  0  0  0
 10178  1  0  0  0  0
 10179  1  0  0  0  0
 11180  1  0  0  0  0
 11181  1  0  0  0  0
 11182  1  0  0  0  0
 14183  1  0  0  0  0
 19184  1  0  0  0  0
 20185  1  0  0  0  0
 23186  1  0  0  0  0
 23187  1  0  0  0  0
 24188  1  0  0  0  0
 24189  1  0  0  0  0
 24190  1  0  0  0  0
 26191  1  0  0  0  0
 30192  1  0  0  0  0
 34193  1  0  0  0  0
 38194  1  0  0  0  0
 39195  1  0  0  0  0
 42196  1  0  0  0  0
 42197  1  0  0  0  0
 43198  1  0  0  0  0
 43199  1  0  0  0  0
 43200  1  0  0  0  0
 46201  1  0  0  0  0
 51202  1  0  0  0  0
 52203  1  0  0  0  0
 55204  1  0  0  0  0
 55205  1  0  0  0  0
 56206  1  0  0  0  0
 56207  1  0  0  0  0
 56208  1  0  0  0  0
 58209  1  0  0  0  0
 62210  1  0  0  0  0
 66211  1  0  0  0  0
 70212  1  0  0  0  0
 71213  1  0  0  0  0
 74214  1  0  0  0  0
 74215  1  0  0  0  0
 75216  1  0  0  0  0
 75217  1  0  0  0  0
 75218  1  0  0  0  0
 78219  1  0  0  0  0
 83220  1  0  0  0  0
 84221  1  0  0  0  0
 87222  1  0  0  0  0
 87223  1  0  0  0  0
 88224  1  0  0  0  0
 88225  1  0  0  0  0
 88226  1  0  0  0  0
 90227  1  0  0  0  0
 94228  1  0  0  0  0
 98229  1  0  0  0  0
102230  1  0  0  0  0
103231  1  0  0  0  0
106232  1  0  0  0  0
106233  1  0  0  0  0
107234  1  0  0  0  0
107235  1  0  0  0  0
107236  1  0  0  0  0
110237  1  0  0  0  0
115238  1  0  0  0  0
116239  1  0  0  0  0
119240  1  0  0  0  0
119241  1  0  0  0  0
120242  1  0  0  0  0
120243  1  0  0  0  0
120244  1  0  0  0  0
122245  1  0  0  0  0
126246  1  0  0  0  0
131247  1  0  0  0  0
139248  1  0  0  0  0
140249  1  0  0  0  0
141250  1  0  0  0  0
143251  1  0  0  0  0
147252  1  0  0  0  0
148253  1  0  0  0  0
151254  1  0  0  0  0
151255  1  0  0  0  0
152256  1  0  0  0  0
152257  1  0  0  0  0
152258  1  0  0  0  0
155259  1  0  0  0  0
160260  1  0  0  0  0
161261  1  0  0  0  0
164262  1  0  0  0  0
164263  1  0  0  0  0
165264  1  0  0  0  0
165265  1  0  0  0  0
165266  1  0  0  0  0
167267  1  0  0  0  0
171268  1  0  0  0  0
172269  1  0  0  0  0
M  END
