
  xtb     03012220423D
 energy: -462.279153672946 gnorm: 0.000637255346 xtb: 6.4.1 (unknown)
235261  0     0  0            999 V2000
   -7.4023   -1.1650   -6.8707 C   0  0  0  0  0  0  0  0  0  0  0  0
   -7.2184   -0.5066   -5.7086 C   0  0  0  0  0  0  0  0  0  0  0  0
   -6.2801    0.5613   -5.8210 C   0  0  0  0  0  0  0  0  0  0  0  0
   -5.7990    1.4082   -4.8111 C   0  0  0  0  0  0  0  0  0  0  0  0
   -6.1426    1.2310   -3.4082 C   0  0  0  0  0  0  0  0  0  0  0  0
   -7.7720    1.2094   -2.8122 S   0  0  0  0  0  0  0  0  0  0  0  0
   -7.2565    1.0061   -1.1705 C   0  0  0  0  0  0  0  0  0  0  0  0
   -8.2411    0.9266   -0.0565 C   0  0  0  0  0  0  0  0  0  0  0  0
   -9.3521   -0.0809   -0.3417 C   0  0  0  0  0  0  0  0  0  0  0  0
   -5.8962    0.9546   -1.1056 C   0  0  0  0  0  0  0  0  0  0  0  0
   -4.9955    0.7870    0.3501 Cl  0  0  0  0  0  0  0  0  0  0  0  0
   -5.2649    1.0767   -2.3712 C   0  0  0  0  0  0  0  0  0  0  0  0
   -3.5682    0.9629   -2.5684 Cl  0  0  0  0  0  0  0  0  0  0  0  0
   -4.8932    2.3916   -5.1924 C   0  0  0  0  0  0  0  0  0  0  0  0
   -4.3808    2.5008   -6.5077 C   0  0  0  0  0  0  0  0  0  0  0  0
   -4.7879    1.5881   -7.4949 C   0  0  0  0  0  0  0  0  0  0  0  0
   -4.1591    1.5889   -8.8048 C   0  0  0  0  0  0  0  0  0  0  0  0
   -5.0832    1.6416  -10.2751 S   0  0  0  0  0  0  0  0  0  0  0  0
   -3.6610    1.6268  -11.2611 C   0  0  0  0  0  0  0  0  0  0  0  0
   -3.7526    1.6093  -12.7467 C   0  0  0  0  0  0  0  0  0  0  0  0
   -3.9279    0.1791  -13.2633 C   0  0  0  0  0  0  0  0  0  0  0  0
   -2.5439    1.5678  -10.4821 C   0  0  0  0  0  0  0  0  0  0  0  0
   -2.8206    1.5496   -9.0893 C   0  0  0  0  0  0  0  0  0  0  0  0
   -1.5785    1.4076   -7.9104 Cl  0  0  0  0  0  0  0  0  0  0  0  0
   -0.9421    1.5317  -11.0985 Cl  0  0  0  0  0  0  0  0  0  0  0  0
   -5.7662    0.6681   -7.1359 C   0  0  0  0  0  0  0  0  0  0  0  0
   -6.4463   -0.5515   -8.1765 S   0  0  0  0  0  0  0  0  0  0  0  0
   -3.4360    3.5511   -6.6225 C   0  0  0  0  0  0  0  0  0  0  0  0
   -3.2088    4.2061   -5.4484 C   0  0  0  0  0  0  0  0  0  0  0  0
   -4.2246    3.6138   -4.1519 S   0  0  0  0  0  0  0  0  0  0  0  0
   -2.1198    5.0783   -5.1336 C   0  0  0  0  0  0  0  0  0  0  0  0
   -0.9282    5.1319   -5.7961 C   0  0  0  0  0  0  0  0  0  0  0  0
    0.0992    5.7538   -5.0470 C   0  0  0  0  0  0  0  0  0  0  0  0
    1.4735    5.7618   -5.3370 C   0  0  0  0  0  0  0  0  0  0  0  0
    1.9967    5.1567   -6.5557 C   0  0  0  0  0  0  0  0  0  0  0  0
    2.9252    6.0631   -7.7073 S   0  0  0  0  0  0  0  0  0  0  0  0
    3.1548    4.6787   -8.7248 C   0  0  0  0  0  0  0  0  0  0  0  0
    3.9335    4.7788   -9.9901 C   0  0  0  0  0  0  0  0  0  0  0  0
    5.3514    5.2900   -9.7387 C   0  0  0  0  0  0  0  0  0  0  0  0
    2.5498    3.5859   -8.1804 C   0  0  0  0  0  0  0  0  0  0  0  0
    2.5529    2.0241   -8.8913 Cl  0  0  0  0  0  0  0  0  0  0  0  0
    1.8921    3.8529   -6.9487 C   0  0  0  0  0  0  0  0  0  0  0  0
    1.1090    2.6332   -6.0264 Cl  0  0  0  0  0  0  0  0  0  0  0  0
    2.3210    6.1941   -4.3313 C   0  0  0  0  0  0  0  0  0  0  0  0
    1.8594    6.6769   -3.0834 C   0  0  0  0  0  0  0  0  0  0  0  0
    0.4759    6.7934   -2.8427 C   0  0  0  0  0  0  0  0  0  0  0  0
   -0.0054    7.3648   -1.6019 C   0  0  0  0  0  0  0  0  0  0  0  0
   -1.2754    6.6358   -0.6641 S   0  0  0  0  0  0  0  0  0  0  0  0
   -1.2019    7.8734    0.5419 C   0  0  0  0  0  0  0  0  0  0  0  0
   -2.1389    7.8781    1.6984 C   0  0  0  0  0  0  0  0  0  0  0  0
   -3.4617    8.5504    1.3220 C   0  0  0  0  0  0  0  0  0  0  0  0
   -0.2545    8.7990    0.2172 C   0  0  0  0  0  0  0  0  0  0  0  0
    0.4322    8.5110   -0.9907 C   0  0  0  0  0  0  0  0  0  0  0  0
    1.6268    9.5574   -1.6401 Cl  0  0  0  0  0  0  0  0  0  0  0  0
    0.0937   10.1856    1.1667 Cl  0  0  0  0  0  0  0  0  0  0  0  0
   -0.3693    6.2546   -3.8071 C   0  0  0  0  0  0  0  0  0  0  0  0
   -2.0727    5.9489   -3.6146 S   0  0  0  0  0  0  0  0  0  0  0  0
    2.8969    6.7075   -2.1169 C   0  0  0  0  0  0  0  0  0  0  0  0
    4.0882    6.2306   -2.5825 C   0  0  0  0  0  0  0  0  0  0  0  0
    4.0405    5.9168   -4.3129 S   0  0  0  0  0  0  0  0  0  0  0  0
    5.1076    5.6006   -1.8069 C   0  0  0  0  0  0  0  0  0  0  0  0
    5.9151    4.6070   -2.2821 C   0  0  0  0  0  0  0  0  0  0  0  0
    6.3663    3.7154   -1.2814 C   0  0  0  0  0  0  0  0  0  0  0  0
    6.8554    2.4113   -1.4809 C   0  0  0  0  0  0  0  0  0  0  0  0
    7.0516    1.8677   -2.8151 C   0  0  0  0  0  0  0  0  0  0  0  0
    5.8030    1.9827   -4.0233 S   0  0  0  0  0  0  0  0  0  0  0  0
    6.7264    1.0871   -5.1802 C   0  0  0  0  0  0  0  0  0  0  0  0
    6.1933    0.8520   -6.5503 C   0  0  0  0  0  0  0  0  0  0  0  0
    6.0186    2.1670   -7.3119 C   0  0  0  0  0  0  0  0  0  0  0  0
    7.9256    0.7217   -4.6457 C   0  0  0  0  0  0  0  0  0  0  0  0
    9.1229   -0.1721   -5.4896 Cl  0  0  0  0  0  0  0  0  0  0  0  0
    8.1069    1.1487   -3.3014 C   0  0  0  0  0  0  0  0  0  0  0  0
    9.5440    0.8439   -2.4199 Cl  0  0  0  0  0  0  0  0  0  0  0  0
    6.9354    1.5951   -0.3602 C   0  0  0  0  0  0  0  0  0  0  0  0
    6.6282    2.0549    0.9435 C   0  0  0  0  0  0  0  0  0  0  0  0
    6.1405    3.3578    1.1402 C   0  0  0  0  0  0  0  0  0  0  0  0
    5.5888    3.7291    2.4403 C   0  0  0  0  0  0  0  0  0  0  0  0
    6.2723    4.9652    3.4453 S   0  0  0  0  0  0  0  0  0  0  0  0
    5.1030    4.6998    4.6939 C   0  0  0  0  0  0  0  0  0  0  0  0
    5.1641    5.4349    5.9873 C   0  0  0  0  0  0  0  0  0  0  0  0
    5.9500    4.6315    7.0270 C   0  0  0  0  0  0  0  0  0  0  0  0
    4.2373    3.7107    4.3330 C   0  0  0  0  0  0  0  0  0  0  0  0
    4.5092    3.1576    3.0537 C   0  0  0  0  0  0  0  0  0  0  0  0
    3.5491    1.9170    2.3473 Cl  0  0  0  0  0  0  0  0  0  0  0  0
    2.9353    3.1757    5.3119 Cl  0  0  0  0  0  0  0  0  0  0  0  0
    5.9917    4.1500    0.0151 C   0  0  0  0  0  0  0  0  0  0  0  0
    5.0674    5.6298   -0.0511 S   0  0  0  0  0  0  0  0  0  0  0  0
    6.5622    0.9935    1.8793 C   0  0  0  0  0  0  0  0  0  0  0  0
    6.6706   -0.2373    1.3015 C   0  0  0  0  0  0  0  0  0  0  0  0
    7.0927   -0.1405   -0.3940 S   0  0  0  0  0  0  0  0  0  0  0  0
    6.0706   -1.4104    1.8703 C   0  0  0  0  0  0  0  0  0  0  0  0
    5.9083   -1.7268    3.1851 C   0  0  0  0  0  0  0  0  0  0  0  0
    4.8163   -2.6021    3.4217 C   0  0  0  0  0  0  0  0  0  0  0  0
    4.2962   -3.0318    4.6552 C   0  0  0  0  0  0  0  0  0  0  0  0
    4.8100   -2.5056    5.9080 C   0  0  0  0  0  0  0  0  0  0  0  0
    5.2106   -3.5295    7.2534 S   0  0  0  0  0  0  0  0  0  0  0  0
    5.5998   -2.1773    8.2624 C   0  0  0  0  0  0  0  0  0  0  0  0
    5.9825   -2.3711    9.6876 C   0  0  0  0  0  0  0  0  0  0  0  0
    4.7379   -2.5828   10.5535 C   0  0  0  0  0  0  0  0  0  0  0  0
    5.4175   -1.0090    7.5841 C   0  0  0  0  0  0  0  0  0  0  0  0
    5.6896    0.5465    8.2580 Cl  0  0  0  0  0  0  0  0  0  0  0  0
    4.9705   -1.1882    6.2481 C   0  0  0  0  0  0  0  0  0  0  0  0
    4.5654    0.1337    5.2309 Cl  0  0  0  0  0  0  0  0  0  0  0  0
    3.1938   -3.8777    4.6139 C   0  0  0  0  0  0  0  0  0  0  0  0
    2.5035   -4.1720    3.4145 C   0  0  0  0  0  0  0  0  0  0  0  0
    2.9531   -3.6463    2.1908 C   0  0  0  0  0  0  0  0  0  0  0  0
    2.1233   -3.6856    0.9983 C   0  0  0  0  0  0  0  0  0  0  0  0
    1.3930   -5.1421    0.3922 S   0  0  0  0  0  0  0  0  0  0  0  0
    0.5526   -4.3003   -0.8671 C   0  0  0  0  0  0  0  0  0  0  0  0
   -0.3734   -5.0192   -1.7838 C   0  0  0  0  0  0  0  0  0  0  0  0
   -1.5476   -5.6262   -1.0146 C   0  0  0  0  0  0  0  0  0  0  0  0
    0.8400   -2.9701   -0.8137 C   0  0  0  0  0  0  0  0  0  0  0  0
    1.7211   -2.6162    0.2433 C   0  0  0  0  0  0  0  0  0  0  0  0
    2.1224   -0.9831    0.5650 Cl  0  0  0  0  0  0  0  0  0  0  0  0
    0.2307   -1.8015   -1.9116 Cl  0  0  0  0  0  0  0  0  0  0  0  0
    4.1507   -2.9455    2.2186 C   0  0  0  0  0  0  0  0  0  0  0  0
    4.9587   -2.2850    0.8330 S   0  0  0  0  0  0  0  0  0  0  0  0
    1.3146   -4.8928    3.6547 C   0  0  0  0  0  0  0  0  0  0  0  0
    1.0838   -5.1702    4.9703 C   0  0  0  0  0  0  0  0  0  0  0  0
    2.3645   -4.5505    5.9941 S   0  0  0  0  0  0  0  0  0  0  0  0
   -0.1051   -5.8010    5.4435 C   0  0  0  0  0  0  0  0  0  0  0  0
   -1.1719   -6.4636    4.2310 S   0  0  0  0  0  0  0  0  0  0  0  0
   -2.4222   -6.7296    5.4059 C   0  0  0  0  0  0  0  0  0  0  0  0
   -1.9742   -6.4427    6.6696 C   0  0  0  0  0  0  0  0  0  0  0  0
   -0.6727   -5.8845    6.6945 C   0  0  0  0  0  0  0  0  0  0  0  0
   -0.0303   -5.4153    7.9702 C   0  0  0  0  0  0  0  0  0  0  0  0
    0.9466   -6.4072    8.3708 C   0  0  0  0  0  0  0  0  0  0  0  0
    1.6844   -7.2188    8.6916 N   0  0  0  0  0  0  0  0  0  0  0  0
   -1.0754   -5.2310    9.0811 C   0  0  0  0  0  0  0  0  0  0  0  0
   -1.9784   -6.4556    9.1740 C   0  0  0  0  0  0  0  0  0  0  0  0
   -2.8283   -6.5790    7.9020 C   0  0  0  0  0  0  0  0  0  0  0  0
   -3.8417   -5.5443    7.8597 C   0  0  0  0  0  0  0  0  0  0  0  0
   -4.6314   -4.7204    7.8054 N   0  0  0  0  0  0  0  0  0  0  0  0
   -3.7621   -7.0708    4.9648 C   0  0  0  0  0  0  0  0  0  0  0  0
   -4.4284   -6.3536    4.0459 C   0  0  0  0  0  0  0  0  0  0  0  0
   -3.9479   -5.1162    3.4811 C   0  0  0  0  0  0  0  0  0  0  0  0
   -3.1343   -4.1958    4.0669 C   0  0  0  0  0  0  0  0  0  0  0  0
   -2.7683   -3.1211    3.2216 C   0  0  0  0  0  0  0  0  0  0  0  0
   -1.8553   -2.0895    3.4951 C   0  0  0  0  0  0  0  0  0  0  0  0
   -1.2458   -1.9414    4.8050 C   0  0  0  0  0  0  0  0  0  0  0  0
    0.4737   -1.7338    4.9843 S   0  0  0  0  0  0  0  0  0  0  0  0
    0.3612   -1.6340    6.7085 C   0  0  0  0  0  0  0  0  0  0  0  0
    1.5567   -1.3869    7.5610 C   0  0  0  0  0  0  0  0  0  0  0  0
    1.8378    0.1122    7.6797 C   0  0  0  0  0  0  0  0  0  0  0  0
   -0.9398   -1.7358    7.1014 C   0  0  0  0  0  0  0  0  0  0  0  0
   -1.4495   -1.6444    8.7393 Cl  0  0  0  0  0  0  0  0  0  0  0  0
   -1.8556   -1.9134    6.0307 C   0  0  0  0  0  0  0  0  0  0  0  0
   -3.5534   -1.9872    6.2867 Cl  0  0  0  0  0  0  0  0  0  0  0  0
   -1.5621   -1.2238    2.4486 C   0  0  0  0  0  0  0  0  0  0  0  0
   -2.1813   -1.3109    1.1782 C   0  0  0  0  0  0  0  0  0  0  0  0
   -3.1302   -2.3163    0.9214 C   0  0  0  0  0  0  0  0  0  0  0  0
   -3.8463   -2.3722   -0.3445 C   0  0  0  0  0  0  0  0  0  0  0  0
   -3.0170   -2.3633   -1.8710 S   0  0  0  0  0  0  0  0  0  0  0  0
   -4.4912   -2.3560   -2.7725 C   0  0  0  0  0  0  0  0  0  0  0  0
   -4.4830   -2.3156   -4.2608 C   0  0  0  0  0  0  0  0  0  0  0  0
   -3.7186   -3.4960   -4.8579 C   0  0  0  0  0  0  0  0  0  0  0  0
   -5.5563   -2.3747   -1.9241 C   0  0  0  0  0  0  0  0  0  0  0  0
   -5.1986   -2.3896   -0.5498 C   0  0  0  0  0  0  0  0  0  0  0  0
   -6.3709   -2.3457    0.6983 Cl  0  0  0  0  0  0  0  0  0  0  0  0
   -7.1903   -2.3692   -2.4430 Cl  0  0  0  0  0  0  0  0  0  0  0  0
   -3.3769   -3.2231    1.9471 C   0  0  0  0  0  0  0  0  0  0  0  0
   -4.3764   -4.6479    1.8469 S   0  0  0  0  0  0  0  0  0  0  0  0
   -1.7490   -0.2583    0.3201 C   0  0  0  0  0  0  0  0  0  0  0  0
   -0.8597    0.5677    0.9058 C   0  0  0  0  0  0  0  0  0  0  0  0
   -0.4803    0.1364    2.5360 S   0  0  0  0  0  0  0  0  0  0  0  0
   -8.0531   -1.9961   -7.0604 H   0  0  0  0  0  0  0  0  0  0  0  0
   -7.7296   -0.7499   -4.7956 H   0  0  0  0  0  0  0  0  0  0  0  0
   -7.7048    0.6465    0.8520 H   0  0  0  0  0  0  0  0  0  0  0  0
   -8.6834    1.9150    0.1026 H   0  0  0  0  0  0  0  0  0  0  0  0
  -10.0511   -0.1107    0.4899 H   0  0  0  0  0  0  0  0  0  0  0  0
   -9.8932    0.1965   -1.2437 H   0  0  0  0  0  0  0  0  0  0  0  0
   -8.9349   -1.0747   -0.4790 H   0  0  0  0  0  0  0  0  0  0  0  0
   -4.6009    2.2172  -13.0654 H   0  0  0  0  0  0  0  0  0  0  0  0
   -2.8378    2.0383  -13.1598 H   0  0  0  0  0  0  0  0  0  0  0  0
   -4.8358   -0.2597  -12.8563 H   0  0  0  0  0  0  0  0  0  0  0  0
   -3.0815   -0.4348  -12.9660 H   0  0  0  0  0  0  0  0  0  0  0  0
   -3.9946    0.1794  -14.3478 H   0  0  0  0  0  0  0  0  0  0  0  0
   -2.9414    3.8071   -7.5405 H   0  0  0  0  0  0  0  0  0  0  0  0
   -0.7633    4.6637   -6.7482 H   0  0  0  0  0  0  0  0  0  0  0  0
    3.4233    5.4602  -10.6763 H   0  0  0  0  0  0  0  0  0  0  0  0
    3.9655    3.7908  -10.4523 H   0  0  0  0  0  0  0  0  0  0  0  0
    5.8986    5.3494  -10.6755 H   0  0  0  0  0  0  0  0  0  0  0  0
    5.8811    4.6209   -9.0656 H   0  0  0  0  0  0  0  0  0  0  0  0
    5.3196    6.2796   -9.2892 H   0  0  0  0  0  0  0  0  0  0  0  0
   -1.6749    8.4196    2.5249 H   0  0  0  0  0  0  0  0  0  0  0  0
   -2.3304    6.8514    2.0141 H   0  0  0  0  0  0  0  0  0  0  0  0
   -4.1364    8.5489    2.1738 H   0  0  0  0  0  0  0  0  0  0  0  0
   -3.2879    9.5790    1.0165 H   0  0  0  0  0  0  0  0  0  0  0  0
   -3.9341    8.0178    0.4999 H   0  0  0  0  0  0  0  0  0  0  0  0
    2.7338    6.9329   -1.0781 H   0  0  0  0  0  0  0  0  0  0  0  0
    6.0780    4.4592   -3.3334 H   0  0  0  0  0  0  0  0  0  0  0  0
    6.8841    0.1983   -7.0850 H   0  0  0  0  0  0  0  0  0  0  0  0
    5.2250    0.3504   -6.4813 H   0  0  0  0  0  0  0  0  0  0  0  0
    5.3284    2.8206   -6.7819 H   0  0  0  0  0  0  0  0  0  0  0  0
    6.9750    2.6754   -7.4113 H   0  0  0  0  0  0  0  0  0  0  0  0
    5.6194    1.9707   -8.3033 H   0  0  0  0  0  0  0  0  0  0  0  0
    5.6425    6.4029    5.8326 H   0  0  0  0  0  0  0  0  0  0  0  0
    4.1469    5.5988    6.3491 H   0  0  0  0  0  0  0  0  0  0  0  0
    6.9686    4.4646    6.6847 H   0  0  0  0  0  0  0  0  0  0  0  0
    5.4767    3.6672    7.1929 H   0  0  0  0  0  0  0  0  0  0  0  0
    5.9824    5.1706    7.9699 H   0  0  0  0  0  0  0  0  0  0  0  0
    6.3102    1.1295    2.9146 H   0  0  0  0  0  0  0  0  0  0  0  0
    6.5358   -1.3302    3.9614 H   0  0  0  0  0  0  0  0  0  0  0  0
    6.6358   -3.2407    9.7750 H   0  0  0  0  0  0  0  0  0  0  0  0
    6.5250   -1.4885   10.0307 H   0  0  0  0  0  0  0  0  0  0  0  0
    5.0250   -2.7203   11.5923 H   0  0  0  0  0  0  0  0  0  0  0  0
    4.0795   -1.7203   10.4848 H   0  0  0  0  0  0  0  0  0  0  0  0
    4.1946   -3.4643   10.2210 H   0  0  0  0  0  0  0  0  0  0  0  0
   -0.7419   -4.3071   -2.5235 H   0  0  0  0  0  0  0  0  0  0  0  0
    0.1663   -5.8145   -2.3035 H   0  0  0  0  0  0  0  0  0  0  0  0
   -2.0899   -4.8515   -0.4786 H   0  0  0  0  0  0  0  0  0  0  0  0
   -1.1904   -6.3593   -0.2952 H   0  0  0  0  0  0  0  0  0  0  0  0
   -2.2320   -6.1155   -1.7020 H   0  0  0  0  0  0  0  0  0  0  0  0
    0.6303   -5.1818    2.8786 H   0  0  0  0  0  0  0  0  0  0  0  0
    0.5024   -4.4715    7.7974 H   0  0  0  0  0  0  0  0  0  0  0  0
   -0.5655   -5.0655   10.0319 H   0  0  0  0  0  0  0  0  0  0  0  0
   -1.6782   -4.3479    8.8598 H   0  0  0  0  0  0  0  0  0  0  0  0
   -1.3689   -7.3560    9.2858 H   0  0  0  0  0  0  0  0  0  0  0  0
   -2.6333   -6.3743   10.0437 H   0  0  0  0  0  0  0  0  0  0  0  0
   -3.3506   -7.5444    7.8872 H   0  0  0  0  0  0  0  0  0  0  0  0
   -4.2264   -7.9431    5.4060 H   0  0  0  0  0  0  0  0  0  0  0  0
   -5.3915   -6.6982    3.6964 H   0  0  0  0  0  0  0  0  0  0  0  0
   -2.8051   -4.2719    5.0852 H   0  0  0  0  0  0  0  0  0  0  0  0
    2.4228   -1.8875    7.1263 H   0  0  0  0  0  0  0  0  0  0  0  0
    1.3743   -1.8035    8.5541 H   0  0  0  0  0  0  0  0  0  0  0  0
    0.9926    0.6209    8.1366 H   0  0  0  0  0  0  0  0  0  0  0  0
    2.0096    0.5424    6.6966 H   0  0  0  0  0  0  0  0  0  0  0  0
    2.7188    0.2805    8.2928 H   0  0  0  0  0  0  0  0  0  0  0  0
   -4.0177   -1.3819   -4.5909 H   0  0  0  0  0  0  0  0  0  0  0  0
   -5.5159   -2.3200   -4.6140 H   0  0  0  0  0  0  0  0  0  0  0  0
   -3.7409   -3.4429   -5.9431 H   0  0  0  0  0  0  0  0  0  0  0  0
   -2.6820   -3.4789   -4.5293 H   0  0  0  0  0  0  0  0  0  0  0  0
   -4.1674   -4.4359   -4.5451 H   0  0  0  0  0  0  0  0  0  0  0  0
   -2.0959   -0.1293   -0.6867 H   0  0  0  0  0  0  0  0  0  0  0  0
   -0.3833    1.4285    0.4784 H   0  0  0  0  0  0  0  0  0  0  0  0
  1  2  2  0  0  0  0
  2  3  1  0  0  0  0
  3  4  2  0  0  0  0
  4  5  1  0  0  0  0
  5  6  1  0  0  0  0
  6  7  1  0  0  0  0
  7  8  1  0  0  0  0
  8  9  1  0  0  0  0
  7 10  2  0  0  0  0
 10 11  1  0  0  0  0
 10 12  1  0  0  0  0
 12 13  1  0  0  0  0
  4 14  1  0  0  0  0
 14 15  2  0  0  0  0
 15 16  1  0  0  0  0
 16 17  1  0  0  0  0
 17 18  1  0  0  0  0
 18 19  1  0  0  0  0
 19 20  1  0  0  0  0
 20 21  1  0  0  0  0
 19 22  2  0  0  0  0
 22 23  1  0  0  0  0
 23 24  1  0  0  0  0
 22 25  1  0  0  0  0
 16 26  2  0  0  0  0
 26 27  1  0  0  0  0
 15 28  1  0  0  0  0
 28 29  2  0  0  0  0
 29 30  1  0  0  0  0
 29 31  1  0  0  0  0
 31 32  2  0  0  0  0
 32 33  1  0  0  0  0
 33 34  2  0  0  0  0
 34 35  1  0  0  0  0
 35 36  1  0  0  0  0
 36 37  1  0  0  0  0
 37 38  1  0  0  0  0
 38 39  1  0  0  0  0
 37 40  2  0  0  0  0
 40 41  1  0  0  0  0
 40 42  1  0  0  0  0
 42 43  1  0  0  0  0
 34 44  1  0  0  0  0
 44 45  2  0  0  0  0
 45 46  1  0  0  0  0
 46 47  1  0  0  0  0
 47 48  1  0  0  0  0
 48 49  1  0  0  0  0
 49 50  1  0  0  0  0
 50 51  1  0  0  0  0
 49 52  2  0  0  0  0
 52 53  1  0  0  0  0
 53 54  1  0  0  0  0
 52 55  1  0  0  0  0
 46 56  2  0  0  0  0
 56 57  1  0  0  0  0
 45 58  1  0  0  0  0
 58 59  2  0  0  0  0
 59 60  1  0  0  0  0
 59 61  1  0  0  0  0
 61 62  2  0  0  0  0
 62 63  1  0  0  0  0
 63 64  2  0  0  0  0
 64 65  1  0  0  0  0
 65 66  1  0  0  0  0
 66 67  1  0  0  0  0
 67 68  1  0  0  0  0
 68 69  1  0  0  0  0
 67 70  2  0  0  0  0
 70 71  1  0  0  0  0
 70 72  1  0  0  0  0
 72 73  1  0  0  0  0
 64 74  1  0  0  0  0
 74 75  2  0  0  0  0
 75 76  1  0  0  0  0
 76 77  1  0  0  0  0
 77 78  1  0  0  0  0
 78 79  1  0  0  0  0
 79 80  1  0  0  0  0
 80 81  1  0  0  0  0
 79 82  2  0  0  0  0
 82 83  1  0  0  0  0
 83 84  1  0  0  0  0
 82 85  1  0  0  0  0
 76 86  2  0  0  0  0
 86 87  1  0  0  0  0
 75 88  1  0  0  0  0
 88 89  2  0  0  0  0
 89 90  1  0  0  0  0
 89 91  1  0  0  0  0
 91 92  2  0  0  0  0
 92 93  1  0  0  0  0
 93 94  2  0  0  0  0
 94 95  1  0  0  0  0
 95 96  1  0  0  0  0
 96 97  1  0  0  0  0
 97 98  1  0  0  0  0
 98 99  1  0  0  0  0
 97100  2  0  0  0  0
100101  1  0  0  0  0
100102  1  0  0  0  0
102103  1  0  0  0  0
 94104  1  0  0  0  0
104105  2  0  0  0  0
105106  1  0  0  0  0
106107  1  0  0  0  0
107108  1  0  0  0  0
108109  1  0  0  0  0
109110  1  0  0  0  0
110111  1  0  0  0  0
109112  2  0  0  0  0
112113  1  0  0  0  0
113114  1  0  0  0  0
112115  1  0  0  0  0
106116  2  0  0  0  0
116117  1  0  0  0  0
105118  1  0  0  0  0
118119  2  0  0  0  0
119120  1  0  0  0  0
119121  1  0  0  0  0
121122  1  0  0  0  0
122123  1  0  0  0  0
123124  2  0  0  0  0
124125  1  0  0  0  0
125126  1  0  0  0  0
126127  1  0  0  0  0
127128  3  0  0  0  0
126129  1  0  0  0  0
129130  1  0  0  0  0
130131  1  0  0  0  0
131132  1  0  0  0  0
132133  3  0  0  0  0
123134  1  0  0  0  0
134135  2  0  0  0  0
135136  1  0  0  0  0
136137  2  0  0  0  0
137138  1  0  0  0  0
138139  2  0  0  0  0
139140  1  0  0  0  0
140141  1  0  0  0  0
141142  1  0  0  0  0
142143  1  0  0  0  0
143144  1  0  0  0  0
142145  2  0  0  0  0
145146  1  0  0  0  0
145147  1  0  0  0  0
147148  1  0  0  0  0
139149  1  0  0  0  0
149150  2  0  0  0  0
150151  1  0  0  0  0
151152  1  0  0  0  0
152153  1  0  0  0  0
153154  1  0  0  0  0
154155  1  0  0  0  0
155156  1  0  0  0  0
154157  2  0  0  0  0
157158  1  0  0  0  0
158159  1  0  0  0  0
157160  1  0  0  0  0
151161  2  0  0  0  0
161162  1  0  0  0  0
150163  1  0  0  0  0
163164  2  0  0  0  0
164165  1  0  0  0  0
 27  1  1  0  0  0  0
 57 31  1  0  0  0  0
 87 61  1  0  0  0  0
117 91  1  0  0  0  0
125121  2  0  0  0  0
162136  1  0  0  0  0
 26  3  1  0  0  0  0
 56 33  1  0  0  0  0
 86 63  1  0  0  0  0
116 93  1  0  0  0  0
131124  1  0  0  0  0
161138  1  0  0  0  0
 12  5  2  0  0  0  0
 30 14  1  0  0  0  0
 42 35  2  0  0  0  0
 60 44  1  0  0  0  0
 72 65  2  0  0  0  0
 90 74  1  0  0  0  0
102 95  2  0  0  0  0
120104  1  0  0  0  0
147140  2  0  0  0  0
165149  1  0  0  0  0
 23 17  2  0  0  0  0
 53 47  2  0  0  0  0
 83 77  2  0  0  0  0
113107  2  0  0  0  0
158152  2  0  0  0  0
  1166  1  0  0  0  0
  2167  1  0  0  0  0
  8168  1  0  0  0  0
  8169  1  0  0  0  0
  9170  1  0  0  0  0
  9171  1  0  0  0  0
  9172  1  0  0  0  0
 20173  1  0  0  0  0
 20174  1  0  0  0  0
 21175  1  0  0  0  0
 21176  1  0  0  0  0
 21177  1  0  0  0  0
 28178  1  0  0  0  0
 32179  1  0  0  0  0
 38180  1  0  0  0  0
 38181  1  0  0  0  0
 39182  1  0  0  0  0
 39183  1  0  0  0  0
 39184  1  0  0  0  0
 50185  1  0  0  0  0
 50186  1  0  0  0  0
 51187  1  0  0  0  0
 51188  1  0  0  0  0
 51189  1  0  0  0  0
 58190  1  0  0  0  0
 62191  1  0  0  0  0
 68192  1  0  0  0  0
 68193  1  0  0  0  0
 69194  1  0  0  0  0
 69195  1  0  0  0  0
 69196  1  0  0  0  0
 80197  1  0  0  0  0
 80198  1  0  0  0  0
 81199  1  0  0  0  0
 81200  1  0  0  0  0
 81201  1  0  0  0  0
 88202  1  0  0  0  0
 92203  1  0  0  0  0
 98204  1  0  0  0  0
 98205  1  0  0  0  0
 99206  1  0  0  0  0
 99207  1  0  0  0  0
 99208  1  0  0  0  0
110209  1  0  0  0  0
110210  1  0  0  0  0
111211  1  0  0  0  0
111212  1  0  0  0  0
111213  1  0  0  0  0
118214  1  0  0  0  0
126215  1  0  0  0  0
129216  1  0  0  0  0
129217  1  0  0  0  0
130218  1  0  0  0  0
130219  1  0  0  0  0
131220  1  0  0  0  0
134221  1  0  0  0  0
135222  1  0  0  0  0
137223  1  0  0  0  0
143224  1  0  0  0  0
143225  1  0  0  0  0
144226  1  0  0  0  0
144227  1  0  0  0  0
144228  1  0  0  0  0
155229  1  0  0  0  0
155230  1  0  0  0  0
156231  1  0  0  0  0
156232  1  0  0  0  0
156233  1  0  0  0  0
163234  1  0  0  0  0
164235  1  0  0  0  0
M  END
