179

C         12.41350       -6.99980        9.11570
C         12.24420       -5.87210        8.39450
C         10.87210       -5.52050        8.23080
C         10.33620       -4.40210        7.57350
C         11.19380       -3.42390        6.89220
C         12.13720       -3.82150        5.94610
C         12.92900       -2.88860        5.31320
C         12.83200       -1.52790        5.60690
S         13.96310       -0.45850        4.77240
C         13.06330        1.12020        4.55330
C         11.78420        0.94260        3.76080
C         11.89970       -1.15030        6.56880
F         11.76790        0.14080        6.94540
C         11.07860       -2.07060        7.18850
C          8.95730       -4.26360        7.60850
C          8.10590       -5.18000        8.27360
C          8.64170       -6.29410        8.94090
C          7.76570       -7.22690        9.65710
C          7.81630       -8.59870        9.41580
C          6.93640       -9.45120       10.04610
C          5.99520       -8.97850       10.96080
S          4.90790      -10.15250       11.69600
C          3.35740       -9.19800       11.95800
C          2.18230      -10.15480       11.92250
C          6.00670       -7.61470       11.24680
C          6.85380       -6.74520       10.59210
F          5.19770       -7.09990       12.19400
C         10.01880       -6.44400        8.88500
S         10.93370       -7.71530        9.65130
C          6.73910       -4.84870        8.11990
C          6.53210       -3.72350        7.37390
S          8.03830       -3.00980        6.81760
C          5.28190       -3.12970        7.03660
S          5.16760       -1.93890        5.77810
C          3.45520       -1.77440        6.01220
C          3.00200       -2.60690        7.01730
C          4.04030       -3.38720        7.59890
C          3.77960       -4.32170        8.61510
N          3.53290       -5.09330        9.42710
C          1.64140       -2.75250        7.34780
N          0.52860       -2.90570        7.57260
C          2.63600       -0.90570        5.22070
S          2.73200       -0.87340        3.48620
C          1.38510        0.21570        3.37640
C          0.92090        0.57070        4.63620
C          1.63160       -0.07930        5.68470
C          1.40130        0.16990        7.05100
N          1.25260        0.41450        8.16030
C         -0.10920        1.48830        4.89780
N         -0.93280        2.25130        5.13570
C          0.84450        0.57800        2.11070
C         -0.32110        1.25210        1.87630
C         -0.64330        1.36450        0.50530
C         -1.78560        1.97840       -0.04320
C         -2.70700        2.71430        0.82460
C         -2.20900        3.62460        1.75670
C         -3.04430        4.27620        2.63890
C         -4.41520        4.03860        2.62850
S         -5.57260        4.77260        3.72630
C         -4.54630        5.35790        5.12090
C         -3.92690        4.21930        5.90800
C         -4.90660        3.16440        1.65540
F         -6.23120        2.93120        1.59400
C         -4.08430        2.50910        0.76680
C         -1.95990        1.82950       -1.40980
C         -1.01560        1.17180       -2.23990
C          0.16660        0.62810       -1.70040
C          1.16890        0.00400       -2.56830
C          1.59000        0.63580       -3.73670
C          2.50970        0.04700       -4.58120
C          3.05060       -1.20000       -4.28610
S          4.19680       -2.09070       -5.27590
C          4.52610       -0.99450       -6.69850
C          5.50800        0.11230       -6.36140
C          2.63400       -1.81330       -3.10130
C          1.71590       -1.23940       -2.25310
F          3.13790       -3.02160       -2.77980
C          0.30410        0.71170       -0.32330
S          1.61550        0.05580        0.62200
C         -1.44810        1.10820       -3.58540
C         -2.65410        1.71410       -3.79950
S         -3.32050        2.40600       -2.33270
C         -3.38880        1.77690       -5.01850
S         -5.07320        2.19880       -5.02240
C         -5.19620        1.96430       -6.73730
C         -3.97260        1.59660       -7.28010
C         -2.94330        1.49100       -6.29970
C         -1.61920        1.17050       -6.63940
N         -0.54110        0.91880       -6.94220
C         -3.72010        1.36560       -8.64130
N         -3.48080        1.17830       -9.74840
C         -6.44080        2.12460       -7.40900
C         -6.73870        1.77460       -8.69510
C         -8.07810        2.04770       -9.05920
C         -8.68390        1.81200      -10.30540
C         -7.88700        1.28970      -11.41880
C         -6.66950        1.88240      -11.74900
C         -5.86370        1.35870      -12.73830
C         -6.24160        0.21270      -13.43000
S         -5.28230       -0.57340      -14.67610
C         -3.59220        0.06370      -14.39710
C         -2.99860       -0.40800      -13.08380
C         -7.48650       -0.34160      -13.12320
F         -7.89870       -1.43650      -13.79160
C         -8.30370        0.17500      -12.14290
C        -10.03690        2.10120      -10.39650
C        -10.78290        2.65310       -9.32500
C        -10.16700        2.92260       -8.09230
C        -10.89940        3.54470       -6.98190
C        -11.62180        4.72200       -7.17270
C        -12.29690        5.30750       -6.12430
C        -12.27840        4.75400       -4.84370
S        -13.14430        5.64290       -3.58640
C        -13.79940        4.35930       -2.45780
C        -14.71300        3.38510       -3.17360
C        -11.53180        3.59330       -4.66380
C        -10.86230        2.98790       -5.70860
F        -11.43340        3.00800       -3.45090
C         -8.82500        2.58940       -7.98430
S         -7.82730        2.80110       -6.56880
C        -12.14910        2.84510       -9.68590
C        -12.41090        2.48600      -10.95970
S        -11.03220        1.88600      -11.81240
H         13.33710       -7.47660        9.38060
H         13.05510       -5.28830        7.99900
H         12.22630       -4.86560        5.68710
H         13.64950       -3.19760        4.57190
H         13.77990        1.73590        4.00930
H         12.88300        1.56600        5.52870
H         11.32690        1.91400        3.58440
H         11.07250        0.32290        4.30270
H         11.99140        0.47320        2.80130
H         10.37940       -1.71910        7.93140
H          8.52180       -8.99080        8.69970
H          6.95450      -10.50870        9.83380
H          3.42530       -8.69080       12.91930
H          3.29030       -8.46360       11.15710
H          1.25800       -9.60120       12.07260
H          2.13280      -10.66490       10.96290
H          2.27260      -10.90310       12.70690
H          6.81660       -5.69750       10.84750
H          5.94250       -5.44670        8.52060
H         -0.95910        1.61640        2.65880
H         -1.15140        3.84020        1.77840
H         -2.61630        4.97190        3.34130
H         -5.25790        5.91200        5.73370
H         -3.80290        6.05690        4.73950
H         -3.22120        3.65140        5.30660
H         -4.70120        3.54240        6.26130
H         -3.39630        4.61780        6.77020
H         -4.52130        1.81410        0.06750
H          1.20670        1.61410       -3.98380
H          2.78910        0.57040       -5.48000
H          4.94750       -1.66640       -7.44650
H          3.57460       -0.61620       -7.06870
H          6.44870       -0.31310       -6.01980
H          5.12110        0.75800       -5.57620
H          5.70040        0.71670       -7.24580
H          1.41110       -1.78220       -1.37240
H         -0.90530        0.59070       -4.35390
H         -6.03540        1.30580       -9.35680
H         -6.35530        2.77800      -11.23460
H         -4.93170        1.85010      -12.96260
H         -3.60820        1.14960      -14.48210
H         -3.03500       -0.34050      -15.24270
H         -3.01890       -1.49420      -13.03190
H         -1.96480       -0.07660      -13.01000
H         -3.54470       -0.01070      -12.23160
H         -9.23860       -0.31680      -11.92600
H        -11.63820        5.18610       -8.14700
H        -12.85550        6.21810       -6.27560
H        -12.96860        3.85790       -1.96690
H        -14.34920        4.94160       -1.71810
H        -15.51700        3.91620       -3.67920
H        -15.14760        2.69540       -2.45310
H        -14.16230        2.80600       -3.91230
H        -10.32030        2.07610       -5.51130
H        -12.89220        3.22120       -9.00660
H        -13.35160        2.52700      -11.47350
