94

C          5.88840        5.08910        3.18440
C          5.48740        4.06860        2.39170
C          4.21120        3.54500        2.72700
O          3.86100        2.54070        1.87030
C          4.91910        2.42510        0.92950
N          6.00190        3.30640        1.35040
C          3.60190        4.14850        3.79150
S          4.67240        5.41680        4.38210
C          2.35450        3.90750        4.43430
C          1.50340        2.91900        4.08030
C          0.27470        2.64900        4.73670
C         -0.30820        3.19710        5.85510
C         -1.54750        2.62660        6.19080
O         -2.06000        3.19020        7.32340
C         -1.12420        4.17710        7.73560
N         -0.03700        4.22000        6.76120
C         -2.00190        1.61680        5.37130
S         -0.78410        1.38600        4.12050
C         -3.21480        0.91620        5.59980
C         -3.87770       -0.07630        4.95310
C         -3.64670       -0.79120        3.75350
S         -2.36590       -0.52590        2.59860
C         -2.92730       -1.79040        1.53220
C         -4.06640       -2.39370        2.05050
C         -4.91260       -3.45180        1.60490
C         -5.94450       -3.74400        2.42380
C         -7.00700       -4.78040        2.25730
C         -6.82820       -5.64130        1.01340
Se        -5.98660       -2.63860        3.98280
C         -4.44950       -1.81870        3.28710
C         -2.20160       -2.03080        0.35010
S         -2.65920       -3.23810       -0.83490
C         -1.30510       -2.85360       -1.87830
C         -0.53110       -1.84770       -1.31590
C          0.65700       -1.17160       -1.72450
C          1.08720       -0.20980       -0.87890
C          2.26700        0.68350       -1.06950
C          1.87630        1.94030       -1.85020
Se        -0.02680       -0.00670        0.65650
C         -1.05210       -1.39220       -0.07450
C         -1.16530       -3.48680       -3.13120
C         -1.98030       -4.38280       -3.77820
C         -1.56190       -4.71380       -5.08460
O         -2.42620       -5.60080       -5.65950
C         -3.42280       -5.88060       -4.68780
N         -3.19580       -5.00550       -3.54380
C         -0.42830       -4.08770       -5.53010
S          0.18060       -3.09740       -4.20290
C          0.26030       -4.26600       -6.76680
C          1.28370       -3.53120       -7.24880
C          1.78430       -2.30530       -6.69310
C          1.13560       -1.21080       -6.19280
C          1.99320       -0.19710       -5.70230
O          1.27340        0.83720       -5.17640
C         -0.09320        0.46680       -5.28390
N         -0.16410       -0.73860       -6.09890
C          3.32770       -0.44190       -5.82880
S          3.52250       -2.00440       -6.61500
C          4.42800        0.37410       -5.40590
C          5.71130        0.06400       -5.56610
H          6.78830        5.66620        3.16560
H          4.53560        2.67880       -0.07380
H          5.26370        1.38030        0.92160
H          6.51440        3.77270        0.61810
H          2.10890        4.57670        5.24580
H          1.75020        2.27740        3.24550
H         -0.77420        3.93440        8.75140
H         -1.63750        5.15050        7.76230
H          0.89740        4.26800        7.14110
H         -3.68910        1.27540        6.50700
H         -4.79380       -0.41340        5.43490
H         -4.72720       -3.96840        0.67980
H         -7.01450       -5.41960        3.14700
H         -7.98100       -4.28030        2.21900
H         -5.87410       -6.16240        1.04340
H         -6.86480       -5.02960        0.11500
H         -7.62340       -6.38110        0.95870
H          1.18500       -1.41850       -2.62940
H          2.65630        0.97340       -0.08930
H          3.04700        0.14430       -1.61260
H          2.72360        2.61820       -1.92760
H          1.55210        1.68020       -2.85490
H          1.06460        2.45750       -1.34110
H         -4.40800       -5.67390       -5.13130
H         -3.37210       -6.94970       -4.42050
H         -3.38770       -5.37580       -2.62600
H         -0.08200       -5.12160       -7.33410
H          1.80920       -3.89460       -8.12180
H         -0.50140        0.31320       -4.26880
H         -0.63890        1.28860       -5.76800
H         -0.90000       -1.39080       -5.87330
H          4.12890        1.29750       -4.92590
H          6.00550       -0.85510       -6.04480
H          6.49790        0.71440       -5.22770
