
  xtb     02282216153D
 energy: -188.489653654332 gnorm: 0.000369584977 xtb: 6.4.1 (unknown)
104115  0     0  0            999 V2000
    6.7843   -4.5240    0.6559 C   0  0  0  0  0  0  0  0  0  0  0  0
    6.5916   -3.3240    1.2468 C   0  0  0  0  0  0  0  0  0  0  0  0
    6.3612   -2.2622    0.3295 C   0  0  0  0  0  0  0  0  0  0  0  0
    6.2746   -1.0709    0.9829 O   0  0  0  0  0  0  0  0  0  0  0  0
    6.3669   -1.3596    2.3693 C   0  0  0  0  0  0  0  0  0  0  0  0
    6.5117   -2.8034    2.5331 N   0  0  0  0  0  0  0  0  0  0  0  0
    6.3482   -2.6237   -0.9840 C   0  0  0  0  0  0  0  0  0  0  0  0
    6.6762   -4.3553   -1.0714 S   0  0  0  0  0  0  0  0  0  0  0  0
    6.2196   -1.8562   -2.1876 C   0  0  0  0  0  0  0  0  0  0  0  0
    5.4344   -0.7792   -2.3930 C   0  0  0  0  0  0  0  0  0  0  0  0
    4.3981   -0.2414   -1.5798 C   0  0  0  0  0  0  0  0  0  0  0  0
    3.6737    0.8954   -1.8494 C   0  0  0  0  0  0  0  0  0  0  0  0
    2.5908    1.1279   -0.9811 C   0  0  0  0  0  0  0  0  0  0  0  0
    1.9068    2.2491   -1.3380 O   0  0  0  0  0  0  0  0  0  0  0  0
    2.5103    2.7145   -2.5363 C   0  0  0  0  0  0  0  0  0  0  0  0
    3.7340    1.9488   -2.7507 N   0  0  0  0  0  0  0  0  0  0  0  0
    2.4031    0.1737   -0.0165 C   0  0  0  0  0  0  0  0  0  0  0  0
    3.6715   -1.0344   -0.1865 S   0  0  0  0  0  0  0  0  0  0  0  0
    1.3632    0.0853    0.9402 C   0  0  0  0  0  0  0  0  0  0  0  0
    1.1330   -0.9860    1.7296 C   0  0  0  0  0  0  0  0  0  0  0  0
    0.0342   -1.0764    2.6262 C   0  0  0  0  0  0  0  0  0  0  0  0
   -0.9334    0.3212    2.9948 S   0  0  0  0  0  0  0  0  0  0  0  0
   -2.0701   -0.6282    3.9047 C   0  0  0  0  0  0  0  0  0  0  0  0
   -1.6516   -1.9420    3.9755 C   0  0  0  0  0  0  0  0  0  0  0  0
   -0.4717   -2.1995    3.2516 C   0  0  0  0  0  0  0  0  0  0  0  0
    0.1060   -3.5727    3.1101 C   0  0  0  0  0  0  0  0  0  0  0  0
   -0.4616   -4.5276    4.1561 C   0  0  0  0  0  0  0  0  0  0  0  0
   -0.1231   -5.8168    3.7992 F   0  0  0  0  0  0  0  0  0  0  0  0
   -1.9833   -4.4046    4.2351 C   0  0  0  0  0  0  0  0  0  0  0  0
   -2.4791   -5.3329    5.1283 F   0  0  0  0  0  0  0  0  0  0  0  0
   -2.3897   -3.0144    4.7153 C   0  0  0  0  0  0  0  0  0  0  0  0
   -3.2203   -0.0755    4.5702 C   0  0  0  0  0  0  0  0  0  0  0  0
   -4.1619    0.7803    4.1172 C   0  0  0  0  0  0  0  0  0  0  0  0
   -4.3919    1.3068    2.8103 C   0  0  0  0  0  0  0  0  0  0  0  0
   -3.3032    1.1130    1.4786 S   0  0  0  0  0  0  0  0  0  0  0  0
   -4.3984    1.8682    0.3699 C   0  0  0  0  0  0  0  0  0  0  0  0
   -5.5475    2.2842    1.0319 C   0  0  0  0  0  0  0  0  0  0  0  0
   -5.5513    1.9533    2.3923 C   0  0  0  0  0  0  0  0  0  0  0  0
   -6.7104    2.2711    3.2890 C   0  0  0  0  0  0  0  0  0  0  0  0
   -7.9750    2.5702    2.4929 C   0  0  0  0  0  0  0  0  0  0  0  0
   -8.4855    1.4072    1.9507 F   0  0  0  0  0  0  0  0  0  0  0  0
   -7.7002    3.5411    1.3414 C   0  0  0  0  0  0  0  0  0  0  0  0
   -7.2239    4.7149    1.8875 F   0  0  0  0  0  0  0  0  0  0  0  0
   -6.6938    2.9690    0.3502 C   0  0  0  0  0  0  0  0  0  0  0  0
   -4.0482    2.1309   -0.9840 C   0  0  0  0  0  0  0  0  0  0  0  0
   -3.0365    1.6273   -1.7330 C   0  0  0  0  0  0  0  0  0  0  0  0
   -2.1604    0.5297   -1.4932 C   0  0  0  0  0  0  0  0  0  0  0  0
   -2.2701   -0.6386   -0.7792 C   0  0  0  0  0  0  0  0  0  0  0  0
   -1.1782   -1.5183   -0.9264 C   0  0  0  0  0  0  0  0  0  0  0  0
   -1.3774   -2.6710   -0.2157 O   0  0  0  0  0  0  0  0  0  0  0  0
   -2.6550   -2.5519    0.3913 C   0  0  0  0  0  0  0  0  0  0  0  0
   -3.1814   -1.2337    0.0768 N   0  0  0  0  0  0  0  0  0  0  0  0
   -0.2041   -1.1251   -1.8052 C   0  0  0  0  0  0  0  0  0  0  0  0
   -0.6426    0.4715   -2.3957 S   0  0  0  0  0  0  0  0  0  0  0  0
    1.0073   -1.8213   -2.0945 C   0  0  0  0  0  0  0  0  0  0  0  0
    1.8696   -1.6552   -3.1197 C   0  0  0  0  0  0  0  0  0  0  0  0
    1.6910   -0.8686   -4.2994 C   0  0  0  0  0  0  0  0  0  0  0  0
    0.5838   -0.5809   -5.0486 C   0  0  0  0  0  0  0  0  0  0  0  0
    0.8447    0.1452   -6.2365 C   0  0  0  0  0  0  0  0  0  0  0  0
   -0.3036    0.3546   -6.9422 O   0  0  0  0  0  0  0  0  0  0  0  0
   -1.3420   -0.2958   -6.2265 C   0  0  0  0  0  0  0  0  0  0  0  0
   -0.7806   -0.7943   -4.9815 N   0  0  0  0  0  0  0  0  0  0  0  0
    2.1535    0.4430   -6.4716 C   0  0  0  0  0  0  0  0  0  0  0  0
    3.1041   -0.2342   -5.1507 S   0  0  0  0  0  0  0  0  0  0  0  0
    2.7336    1.1592   -7.5692 C   0  0  0  0  0  0  0  0  0  0  0  0
    4.0344    1.3899   -7.7234 C   0  0  0  0  0  0  0  0  0  0  0  0
    6.9735   -5.4849    1.0857 H   0  0  0  0  0  0  0  0  0  0  0  0
    7.2134   -0.7967    2.7934 H   0  0  0  0  0  0  0  0  0  0  0  0
    5.4377   -1.0225    2.8543 H   0  0  0  0  0  0  0  0  0  0  0  0
    7.1876   -3.1151    3.2138 H   0  0  0  0  0  0  0  0  0  0  0  0
    6.8290   -2.2027   -3.0120 H   0  0  0  0  0  0  0  0  0  0  0  0
    5.5408   -0.2603   -3.3385 H   0  0  0  0  0  0  0  0  0  0  0  0
    2.7447    3.7810   -2.4153 H   0  0  0  0  0  0  0  0  0  0  0  0
    1.7898    2.5966   -3.3650 H   0  0  0  0  0  0  0  0  0  0  0  0
    3.9604    1.7310   -3.7114 H   0  0  0  0  0  0  0  0  0  0  0  0
    0.6994    0.9403    0.9789 H   0  0  0  0  0  0  0  0  0  0  0  0
    1.7787   -1.8498    1.6490 H   0  0  0  0  0  0  0  0  0  0  0  0
    1.1940   -3.5459    3.1978 H   0  0  0  0  0  0  0  0  0  0  0  0
   -0.1305   -3.9715    2.1170 H   0  0  0  0  0  0  0  0  0  0  0  0
   -0.0244   -4.3615    5.1486 H   0  0  0  0  0  0  0  0  0  0  0  0
   -2.4255   -4.6540    3.2618 H   0  0  0  0  0  0  0  0  0  0  0  0
   -2.1607   -2.9494    5.7851 H   0  0  0  0  0  0  0  0  0  0  0  0
   -3.4690   -2.8901    4.6045 H   0  0  0  0  0  0  0  0  0  0  0  0
   -3.3552   -0.4471    5.5805 H   0  0  0  0  0  0  0  0  0  0  0  0
   -4.9257    1.0603    4.8317 H   0  0  0  0  0  0  0  0  0  0  0  0
   -6.4788    3.1516    3.8952 H   0  0  0  0  0  0  0  0  0  0  0  0
   -6.9193    1.4359    3.9604 H   0  0  0  0  0  0  0  0  0  0  0  0
   -8.7583    2.9689    3.1500 H   0  0  0  0  0  0  0  0  0  0  0  0
   -8.6360    3.8024    0.8303 H   0  0  0  0  0  0  0  0  0  0  0  0
   -6.3294    3.7866   -0.2767 H   0  0  0  0  0  0  0  0  0  0  0  0
   -7.2188    2.2572   -0.2936 H   0  0  0  0  0  0  0  0  0  0  0  0
   -4.6511    2.8979   -1.4551 H   0  0  0  0  0  0  0  0  0  0  0  0
   -2.8462    2.1204   -2.6787 H   0  0  0  0  0  0  0  0  0  0  0  0
   -2.5364   -2.6552    1.4812 H   0  0  0  0  0  0  0  0  0  0  0  0
   -3.3047   -3.3642    0.0247 H   0  0  0  0  0  0  0  0  0  0  0  0
   -4.1674   -1.1469   -0.1083 H   0  0  0  0  0  0  0  0  0  0  0  0
    1.2551   -2.5649   -1.3476 H   0  0  0  0  0  0  0  0  0  0  0  0
    2.8135   -2.1827   -3.0698 H   0  0  0  0  0  0  0  0  0  0  0  0
   -2.1337    0.4396   -6.0181 H   0  0  0  0  0  0  0  0  0  0  0  0
   -1.7618   -1.0996   -6.8555 H   0  0  0  0  0  0  0  0  0  0  0  0
   -1.1325   -1.6596   -4.6068 H   0  0  0  0  0  0  0  0  0  0  0  0
    2.0112    1.5138   -8.2929 H   0  0  0  0  0  0  0  0  0  0  0  0
    4.7536    1.0330   -7.0045 H   0  0  0  0  0  0  0  0  0  0  0  0
    4.4163    1.9326   -8.5690 H   0  0  0  0  0  0  0  0  0  0  0  0
  1  2  2  0  0  0  0
  2  3  1  0  0  0  0
  3  4  1  0  0  0  0
  4  5  1  0  0  0  0
  5  6  1  0  0  0  0
  3  7  2  0  0  0  0
  7  8  1  0  0  0  0
  7  9  1  0  0  0  0
  9 10  2  0  0  0  0
 10 11  1  0  0  0  0
 11 12  2  0  0  0  0
 12 13  1  0  0  0  0
 13 14  1  0  0  0  0
 14 15  1  0  0  0  0
 15 16  1  0  0  0  0
 13 17  2  0  0  0  0
 17 18  1  0  0  0  0
 17 19  1  0  0  0  0
 19 20  2  0  0  0  0
 20 21  1  0  0  0  0
 21 22  1  0  0  0  0
 22 23  1  0  0  0  0
 23 24  2  0  0  0  0
 24 25  1  0  0  0  0
 25 26  1  0  0  0  0
 26 27  1  0  0  0  0
 27 28  1  0  0  0  0
 27 29  1  0  0  0  0
 29 30  1  0  0  0  0
 29 31  1  0  0  0  0
 23 32  1  0  0  0  0
 32 33  2  0  0  0  0
 33 34  1  0  0  0  0
 34 35  1  0  0  0  0
 35 36  1  0  0  0  0
 36 37  2  0  0  0  0
 37 38  1  0  0  0  0
 38 39  1  0  0  0  0
 39 40  1  0  0  0  0
 40 41  1  0  0  0  0
 40 42  1  0  0  0  0
 42 43  1  0  0  0  0
 42 44  1  0  0  0  0
 36 45  1  0  0  0  0
 45 46  2  0  0  0  0
 46 47  1  0  0  0  0
 47 48  2  0  0  0  0
 48 49  1  0  0  0  0
 49 50  1  0  0  0  0
 50 51  1  0  0  0  0
 51 52  1  0  0  0  0
 49 53  2  0  0  0  0
 53 54  1  0  0  0  0
 53 55  1  0  0  0  0
 55 56  2  0  0  0  0
 56 57  1  0  0  0  0
 57 58  2  0  0  0  0
 58 59  1  0  0  0  0
 59 60  1  0  0  0  0
 60 61  1  0  0  0  0
 61 62  1  0  0  0  0
 59 63  2  0  0  0  0
 63 64  1  0  0  0  0
 63 65  1  0  0  0  0
 65 66  2  0  0  0  0
  8  1  1  0  0  0  0
 18 11  1  0  0  0  0
 25 21  2  0  0  0  0
 38 34  2  0  0  0  0
 54 47  1  0  0  0  0
 64 57  1  0  0  0  0
  6  2  1  0  0  0  0
 16 12  1  0  0  0  0
 31 24  1  0  0  0  0
 44 37  1  0  0  0  0
 52 48  1  0  0  0  0
 62 58  1  0  0  0  0
  1 67  1  0  0  0  0
  5 68  1  0  0  0  0
  5 69  1  0  0  0  0
  6 70  1  0  0  0  0
  9 71  1  0  0  0  0
 10 72  1  0  0  0  0
 15 73  1  0  0  0  0
 15 74  1  0  0  0  0
 16 75  1  0  0  0  0
 19 76  1  0  0  0  0
 20 77  1  0  0  0  0
 26 78  1  0  0  0  0
 26 79  1  0  0  0  0
 27 80  1  0  0  0  0
 29 81  1  0  0  0  0
 31 82  1  0  0  0  0
 31 83  1  0  0  0  0
 32 84  1  0  0  0  0
 33 85  1  0  0  0  0
 39 86  1  0  0  0  0
 39 87  1  0  0  0  0
 40 88  1  0  0  0  0
 42 89  1  0  0  0  0
 44 90  1  0  0  0  0
 44 91  1  0  0  0  0
 45 92  1  0  0  0  0
 46 93  1  0  0  0  0
 51 94  1  0  0  0  0
 51 95  1  0  0  0  0
 52 96  1  0  0  0  0
 55 97  1  0  0  0  0
 56 98  1  0  0  0  0
 61 99  1  0  0  0  0
 61100  1  0  0  0  0
 62101  1  0  0  0  0
 65102  1  0  0  0  0
 66103  1  0  0  0  0
 66104  1  0  0  0  0
M  END
