98

C          9.48740       -3.09700        0.75630
C         10.15110       -3.75810       -0.22060
C          9.50320       -4.94840       -0.63370
O         10.22850       -5.59100       -1.59570
C         11.40030       -4.81430       -1.79960
N         11.28610       -3.59200       -1.00860
C          8.31570       -5.21980       -0.01200
S          8.02420       -3.94050        1.16410
C          7.54510       -6.41640       -0.14290
C          6.28970       -6.67310        0.27880
C          5.31990       -5.73730        0.75140
C          5.06780       -4.43720        0.39840
C          3.92100       -3.87820        1.00090
O          3.70470       -2.60750        0.56170
C          4.72650       -2.32890       -0.38480
N          5.63510       -3.46550       -0.40680
C          3.22840       -4.71030        1.84160
S          4.05650       -6.26540        1.86530
C          2.05150       -4.43030        2.57640
C          1.40880       -5.30750        3.38120
C          0.22700       -5.01020        4.10570
S         -0.51960       -3.41820        4.00920
C         -0.48180       -5.85940        4.93950
C         -1.60590       -5.24570        5.49070
C         -2.70310       -5.58700        6.38970
S         -2.96380       -7.01920        7.13410
C         -1.75770       -3.91450        5.07660
C         -2.92390       -3.38430        5.68430
S         -3.80530       -1.92730        5.71450
C         -3.50950       -4.38320        6.47870
C         -4.67290       -3.94680        7.11740
C         -4.99290       -2.64050        6.80600
C         -6.06590       -1.88300        7.37000
C         -6.49980       -0.66550        6.99560
C         -6.08040        0.05020        5.81060
S         -6.27360       -0.69850        4.22170
C         -5.56710        1.31650        5.71870
C         -5.26260        1.67670        4.39660
C         -4.65640        2.78710        3.69260
S         -4.10620        4.19250        4.32200
C         -5.59490        0.67560        3.47310
C         -5.21960        1.11450        2.17560
S         -5.23750        0.55120        0.56160
C         -4.63660        2.38330        2.28860
C         -4.18980        2.88870        1.06970
C         -4.43520        2.02210        0.01670
C         -4.09290        2.21460       -1.34360
C         -4.44180        1.38270       -2.35440
C         -4.07260        1.56150       -3.70690
C         -4.45870        0.83400       -4.80940
C         -3.89650        1.27520       -6.01800
O         -4.30480        0.49360       -7.06420
C         -5.14340       -0.50800       -6.50830
N         -5.32680       -0.21130       -5.09070
C         -3.05880        2.36090       -5.93120
S         -2.97280        2.83470       -4.23780
C         -2.26250        2.87150       -6.99360
C         -1.43180        3.93770       -7.03040
C         -1.28750        4.99120       -6.07990
C         -2.18580        5.63000       -5.26740
C         -1.64750        6.71920       -4.54080
O         -2.61270        7.33040       -3.79330
C         -3.82840        6.65490       -4.07190
N         -3.52200        5.52420       -4.93400
C         -0.32680        6.97890       -4.75880
S          0.27000        5.81260       -5.93260
C          0.49430        8.00180       -4.17990
C          1.78060        8.19000       -4.46100
H          9.73740       -2.19150        1.26780
H         12.28060       -5.41870       -1.52310
H         11.46700       -4.56420       -2.86900
H         12.13090       -3.26700       -0.56340
H          8.09910       -7.22430       -0.60570
H          5.94910       -7.70030        0.25330
H          4.26110       -2.13650       -1.36660
H          5.26080       -1.42250       -0.06250
H          6.05710       -3.72570       -1.28310
H          1.66970       -3.42400        2.45520
H          1.80210       -6.30930        3.49540
H         -0.18480       -6.87490        5.12850
H         -5.26890       -4.55510        7.77370
H         -6.52480       -2.34800        8.23330
H         -7.23080       -0.16130        7.61510
H         -5.37870        1.93760        6.57570
H         -3.70490        3.83940        0.94260
H         -3.50860        3.09720       -1.56870
H         -5.05650        0.51580       -2.14310
H         -4.68260       -1.49580       -6.67750
H         -6.11290       -0.47760       -7.02740
H         -5.36530       -0.99710       -4.46020
H         -2.30350        2.24090       -7.87380
H         -0.77140        4.01830       -7.88480
H         -4.25780        6.30210       -3.12210
H         -4.53430        7.36310       -4.53850
H         -4.19670        5.24950       -5.62850
H         -0.02490        8.63530       -3.47220
H          2.35150        8.97550       -3.99970
H          2.29420        7.55870       -5.16720
