
  xtb     02282217333D
 energy: -192.478054335477 gnorm: 0.000572650279 xtb: 6.4.1 (unknown)
116129  0     0  0            999 V2000
    6.0135   -0.4575    7.8984 C   0  0  0  0  0  0  0  0  0  0  0  0
    6.3144   -0.6718    9.1994 C   0  0  0  0  0  0  0  0  0  0  0  0
    5.3329   -1.4259    9.8925 C   0  0  0  0  0  0  0  0  0  0  0  0
    5.6808   -1.5906   11.2038 O   0  0  0  0  0  0  0  0  0  0  0  0
    6.9083   -0.9000   11.3823 C   0  0  0  0  0  0  0  0  0  0  0  0
    7.3627   -0.4230   10.0797 N   0  0  0  0  0  0  0  0  0  0  0  0
    4.2569   -1.8112    9.1451 C   0  0  0  0  0  0  0  0  0  0  0  0
    4.4917   -1.2048    7.5066 S   0  0  0  0  0  0  0  0  0  0  0  0
    3.1146   -2.5591    9.5460 C   0  0  0  0  0  0  0  0  0  0  0  0
    2.0928   -2.8795    8.7235 C   0  0  0  0  0  0  0  0  0  0  0  0
    0.9522   -3.6350    9.0982 C   0  0  0  0  0  0  0  0  0  0  0  0
    0.6339   -4.2987   10.2584 C   0  0  0  0  0  0  0  0  0  0  0  0
   -0.6152   -4.9404   10.2228 C   0  0  0  0  0  0  0  0  0  0  0  0
   -0.8617   -5.6052   11.3916 O   0  0  0  0  0  0  0  0  0  0  0  0
    0.2707   -5.3850   12.2201 C   0  0  0  0  0  0  0  0  0  0  0  0
    1.1907   -4.4923   11.5204 N   0  0  0  0  0  0  0  0  0  0  0  0
   -1.3338   -4.8216    9.0548 C   0  0  0  0  0  0  0  0  0  0  0  0
   -0.3705   -3.8433    7.9549 S   0  0  0  0  0  0  0  0  0  0  0  0
   -2.6194   -5.3987    8.8741 C   0  0  0  0  0  0  0  0  0  0  0  0
   -3.5169   -5.4386    7.8584 C   0  0  0  0  0  0  0  0  0  0  0  0
   -3.5354   -4.9424    6.5269 C   0  0  0  0  0  0  0  0  0  0  0  0
   -2.2222   -4.1549    5.6924 S   0  0  0  0  0  0  0  0  0  0  0  0
   -3.1849   -3.9811    4.2750 C   0  0  0  0  0  0  0  0  0  0  0  0
   -2.8614   -3.3815    3.0345 C   0  0  0  0  0  0  0  0  0  0  0  0
   -3.8411   -3.3458    2.0509 C   0  0  0  0  0  0  0  0  0  0  0  0
   -5.4554   -4.2314    2.7510 Ge  0  0  0  0  0  4  0  0  0  0  0  0
   -5.8854   -5.9427    1.7954 C   0  0  0  0  0  0  0  0  0  0  0  0
   -6.3478   -5.7064    0.3663 C   0  0  0  0  0  0  0  0  0  0  0  0
   -7.0236   -2.9910    2.9212 C   0  0  0  0  0  0  0  0  0  0  0  0
   -8.1955   -3.6273    3.6516 C   0  0  0  0  0  0  0  0  0  0  0  0
   -4.4626   -4.5081    4.4303 C   0  0  0  0  0  0  0  0  0  0  0  0
   -4.6437   -5.0504    5.6967 C   0  0  0  0  0  0  0  0  0  0  0  0
   -3.4005   -2.7099    0.8919 C   0  0  0  0  0  0  0  0  0  0  0  0
   -2.0967   -2.2630    0.9719 C   0  0  0  0  0  0  0  0  0  0  0  0
   -1.3896   -2.6390    2.5265 S   0  0  0  0  0  0  0  0  0  0  0  0
   -1.3441   -1.5663   -0.0079 C   0  0  0  0  0  0  0  0  0  0  0  0
   -2.0820   -1.0754   -1.5154 S   0  0  0  0  0  0  0  0  0  0  0  0
   -0.6029   -0.3416   -2.0206 C   0  0  0  0  0  0  0  0  0  0  0  0
   -0.3052    0.3685   -3.2079 C   0  0  0  0  0  0  0  0  0  0  0  0
    0.9727    0.8888   -3.3566 C   0  0  0  0  0  0  0  0  0  0  0  0
    2.0309    0.3949   -1.7673 Ge  0  0  0  0  0  4  0  0  0  0  0  0
    2.6296    1.9681   -0.6773 C   0  0  0  0  0  0  0  0  0  0  0  0
    3.2251    1.5509    0.6581 C   0  0  0  0  0  0  0  0  0  0  0  0
    3.5002   -0.9059   -2.1818 C   0  0  0  0  0  0  0  0  0  0  0  0
    4.6492   -0.2600   -2.9398 C   0  0  0  0  0  0  0  0  0  0  0  0
    0.4053   -0.4790   -1.0760 C   0  0  0  0  0  0  0  0  0  0  0  0
   -0.0234   -1.1704    0.0552 C   0  0  0  0  0  0  0  0  0  0  0  0
    1.1248    1.5875   -4.5533 C   0  0  0  0  0  0  0  0  0  0  0  0
   -0.0183    1.6103   -5.3254 C   0  0  0  0  0  0  0  0  0  0  0  0
   -1.3234    0.7353   -4.5553 S   0  0  0  0  0  0  0  0  0  0  0  0
   -0.2193    2.2481   -6.5731 C   0  0  0  0  0  0  0  0  0  0  0  0
   -1.3381    2.2941   -7.3656 C   0  0  0  0  0  0  0  0  0  0  0  0
   -1.1954    3.0673   -8.5341 C   0  0  0  0  0  0  0  0  0  0  0  0
   -2.3624    3.0820   -9.2505 O   0  0  0  0  0  0  0  0  0  0  0  0
   -3.3010    2.3216   -8.5027 C   0  0  0  0  0  0  0  0  0  0  0  0
   -2.6010    1.7234   -7.3741 N   0  0  0  0  0  0  0  0  0  0  0  0
    0.0311    3.6532   -8.7088 C   0  0  0  0  0  0  0  0  0  0  0  0
    1.0487    3.2004   -7.3443 S   0  0  0  0  0  0  0  0  0  0  0  0
    0.5136    4.5038   -9.7376 C   0  0  0  0  0  0  0  0  0  0  0  0
   -0.2425    4.8902  -10.7897 C   0  0  0  0  0  0  0  0  0  0  0  0
    0.1965    5.7498  -11.8280 C   0  0  0  0  0  0  0  0  0  0  0  0
   -0.5028    6.1911  -12.9219 C   0  0  0  0  0  0  0  0  0  0  0  0
    0.2254    7.0430  -13.7798 C   0  0  0  0  0  0  0  0  0  0  0  0
   -0.5329    7.4174  -14.8536 O   0  0  0  0  0  0  0  0  0  0  0  0
   -1.7852    6.7662  -14.7063 C   0  0  0  0  0  0  0  0  0  0  0  0
   -1.7966    6.0862  -13.4158 N   0  0  0  0  0  0  0  0  0  0  0  0
    1.5096    7.3025  -13.3974 C   0  0  0  0  0  0  0  0  0  0  0  0
    1.8184    6.4414  -11.8927 S   0  0  0  0  0  0  0  0  0  0  0  0
    2.4907    8.1138  -14.0548 C   0  0  0  0  0  0  0  0  0  0  0  0
    3.7294    8.3164  -13.6136 C   0  0  0  0  0  0  0  0  0  0  0  0
    6.5549    0.0711    7.1425 H   0  0  0  0  0  0  0  0  0  0  0  0
    6.7544   -0.0802   12.1044 H   0  0  0  0  0  0  0  0  0  0  0  0
    7.6432   -1.6038   11.8007 H   0  0  0  0  0  0  0  0  0  0  0  0
    7.7946    0.4882   10.0616 H   0  0  0  0  0  0  0  0  0  0  0  0
    3.1032   -2.8516   10.5866 H   0  0  0  0  0  0  0  0  0  0  0  0
    2.1180   -2.5400    7.6964 H   0  0  0  0  0  0  0  0  0  0  0  0
    0.7274   -6.3572   12.4660 H   0  0  0  0  0  0  0  0  0  0  0  0
   -0.0703   -4.9101   13.1528 H   0  0  0  0  0  0  0  0  0  0  0  0
    2.1693   -4.7371   11.5649 H   0  0  0  0  0  0  0  0  0  0  0  0
   -2.9264   -5.9052    9.7835 H   0  0  0  0  0  0  0  0  0  0  0  0
   -4.4398   -5.9581    8.0951 H   0  0  0  0  0  0  0  0  0  0  0  0
   -6.6528   -6.4734    2.3587 H   0  0  0  0  0  0  0  0  0  0  0  0
   -4.9901   -6.5640    1.8024 H   0  0  0  0  0  0  0  0  0  0  0  0
   -6.5579   -6.6517   -0.1317 H   0  0  0  0  0  0  0  0  0  0  0  0
   -5.5795   -5.1841   -0.1998 H   0  0  0  0  0  0  0  0  0  0  0  0
   -7.2532   -5.1028    0.3485 H   0  0  0  0  0  0  0  0  0  0  0  0
   -6.6890   -2.1001    3.4521 H   0  0  0  0  0  0  0  0  0  0  0  0
   -7.3259   -2.6788    1.9217 H   0  0  0  0  0  0  0  0  0  0  0  0
   -9.0207   -2.9226    3.7418 H   0  0  0  0  0  0  0  0  0  0  0  0
   -7.8981   -3.9363    4.6514 H   0  0  0  0  0  0  0  0  0  0  0  0
   -8.5533   -4.5046    3.1162 H   0  0  0  0  0  0  0  0  0  0  0  0
   -5.5596   -5.5126    6.0244 H   0  0  0  0  0  0  0  0  0  0  0  0
   -4.0014   -2.5669    0.0098 H   0  0  0  0  0  0  0  0  0  0  0  0
    3.3593    2.5321   -1.2580 H   0  0  0  0  0  0  0  0  0  0  0  0
    1.7687    2.6172   -0.5191 H   0  0  0  0  0  0  0  0  0  0  0  0
    2.4964    0.9946    1.2438 H   0  0  0  0  0  0  0  0  0  0  0  0
    3.5308    2.4242    1.2320 H   0  0  0  0  0  0  0  0  0  0  0  0
    4.0975    0.9174    0.5107 H   0  0  0  0  0  0  0  0  0  0  0  0
    3.0730   -1.7188   -2.7685 H   0  0  0  0  0  0  0  0  0  0  0  0
    3.8572   -1.3342   -1.2453 H   0  0  0  0  0  0  0  0  0  0  0  0
    5.0993    0.5373   -2.3516 H   0  0  0  0  0  0  0  0  0  0  0  0
    4.2962    0.1661   -3.8767 H   0  0  0  0  0  0  0  0  0  0  0  0
    5.4209   -0.9942   -3.1660 H   0  0  0  0  0  0  0  0  0  0  0  0
    0.5971   -1.3862    0.9082 H   0  0  0  0  0  0  0  0  0  0  0  0
    2.0306    2.0770   -4.8669 H   0  0  0  0  0  0  0  0  0  0  0  0
   -3.7085    1.5346   -9.1548 H   0  0  0  0  0  0  0  0  0  0  0  0
   -4.1269    2.9827   -8.1878 H   0  0  0  0  0  0  0  0  0  0  0  0
   -3.1044    1.6343   -6.5050 H   0  0  0  0  0  0  0  0  0  0  0  0
    1.5334    4.8508   -9.6483 H   0  0  0  0  0  0  0  0  0  0  0  0
   -1.2634    4.5404  -10.8651 H   0  0  0  0  0  0  0  0  0  0  0  0
   -2.5783    7.5280  -14.7374 H   0  0  0  0  0  0  0  0  0  0  0  0
   -1.9290    6.0720  -15.5520 H   0  0  0  0  0  0  0  0  0  0  0  0
   -2.2582    5.1906  -13.3747 H   0  0  0  0  0  0  0  0  0  0  0  0
    2.1404    8.5709  -14.9715 H   0  0  0  0  0  0  0  0  0  0  0  0
    4.4250    8.9385  -14.1474 H   0  0  0  0  0  0  0  0  0  0  0  0
    4.0754    7.8635  -12.6992 H   0  0  0  0  0  0  0  0  0  0  0  0
  1  2  2  0  0  0  0
  2  3  1  0  0  0  0
  3  4  1  0  0  0  0
  4  5  1  0  0  0  0
  5  6  1  0  0  0  0
  3  7  2  0  0  0  0
  7  8  1  0  0  0  0
  7  9  1  0  0  0  0
  9 10  2  0  0  0  0
 10 11  1  0  0  0  0
 11 12  2  0  0  0  0
 12 13  1  0  0  0  0
 13 14  1  0  0  0  0
 14 15  1  0  0  0  0
 15 16  1  0  0  0  0
 13 17  2  0  0  0  0
 17 18  1  0  0  0  0
 17 19  1  0  0  0  0
 19 20  2  0  0  0  0
 20 21  1  0  0  0  0
 21 22  1  0  0  0  0
 22 23  1  0  0  0  0
 23 24  1  0  0  0  0
 24 25  2  0  0  0  0
 25 26  1  0  0  0  0
 26 27  1  0  0  0  0
 27 28  1  0  0  0  0
 26 29  1  0  0  0  0
 29 30  1  0  0  0  0
 26 31  1  0  0  0  0
 31 32  1  0  0  0  0
 25 33  1  0  0  0  0
 33 34  2  0  0  0  0
 34 35  1  0  0  0  0
 34 36  1  0  0  0  0
 36 37  1  0  0  0  0
 37 38  1  0  0  0  0
 38 39  1  0  0  0  0
 39 40  2  0  0  0  0
 40 41  1  0  0  0  0
 41 42  1  0  0  0  0
 42 43  1  0  0  0  0
 41 44  1  0  0  0  0
 44 45  1  0  0  0  0
 41 46  1  0  0  0  0
 46 47  1  0  0  0  0
 40 48  1  0  0  0  0
 48 49  2  0  0  0  0
 49 50  1  0  0  0  0
 49 51  1  0  0  0  0
 51 52  2  0  0  0  0
 52 53  1  0  0  0  0
 53 54  1  0  0  0  0
 54 55  1  0  0  0  0
 55 56  1  0  0  0  0
 53 57  2  0  0  0  0
 57 58  1  0  0  0  0
 57 59  1  0  0  0  0
 59 60  2  0  0  0  0
 60 61  1  0  0  0  0
 61 62  2  0  0  0  0
 62 63  1  0  0  0  0
 63 64  1  0  0  0  0
 64 65  1  0  0  0  0
 65 66  1  0  0  0  0
 63 67  2  0  0  0  0
 67 68  1  0  0  0  0
 67 69  1  0  0  0  0
 69 70  2  0  0  0  0
  8  1  1  0  0  0  0
 18 11  1  0  0  0  0
 32 21  2  0  0  0  0
 47 36  2  0  0  0  0
 58 51  1  0  0  0  0
 68 61  1  0  0  0  0
  6  2  1  0  0  0  0
 16 12  1  0  0  0  0
 31 23  2  0  0  0  0
 46 38  2  0  0  0  0
 56 52  1  0  0  0  0
 66 62  1  0  0  0  0
 35 24  1  0  0  0  0
 50 39  1  0  0  0  0
  1 71  1  0  0  0  0
  5 72  1  0  0  0  0
  5 73  1  0  0  0  0
  6 74  1  0  0  0  0
  9 75  1  0  0  0  0
 10 76  1  0  0  0  0
 15 77  1  0  0  0  0
 15 78  1  0  0  0  0
 16 79  1  0  0  0  0
 19 80  1  0  0  0  0
 20 81  1  0  0  0  0
 27 82  1  0  0  0  0
 27 83  1  0  0  0  0
 28 84  1  0  0  0  0
 28 85  1  0  0  0  0
 28 86  1  0  0  0  0
 29 87  1  0  0  0  0
 29 88  1  0  0  0  0
 30 89  1  0  0  0  0
 30 90  1  0  0  0  0
 30 91  1  0  0  0  0
 32 92  1  0  0  0  0
 33 93  1  0  0  0  0
 42 94  1  0  0  0  0
 42 95  1  0  0  0  0
 43 96  1  0  0  0  0
 43 97  1  0  0  0  0
 43 98  1  0  0  0  0
 44 99  1  0  0  0  0
 44100  1  0  0  0  0
 45101  1  0  0  0  0
 45102  1  0  0  0  0
 45103  1  0  0  0  0
 47104  1  0  0  0  0
 48105  1  0  0  0  0
 55106  1  0  0  0  0
 55107  1  0  0  0  0
 56108  1  0  0  0  0
 59109  1  0  0  0  0
 60110  1  0  0  0  0
 65111  1  0  0  0  0
 65112  1  0  0  0  0
 66113  1  0  0  0  0
 69114  1  0  0  0  0
 70115  1  0  0  0  0
 70116  1  0  0  0  0
M  END
