
  xtb     02282217303D
 energy: -182.628617715250 gnorm: 0.000710956299 xtb: 6.4.1 (unknown)
 98111  0     0  0            999 V2000
    9.4874   -3.0970    0.7563 C   0  0  0  0  0  0  0  0  0  0  0  0
   10.1511   -3.7581   -0.2206 C   0  0  0  0  0  0  0  0  0  0  0  0
    9.5032   -4.9484   -0.6337 C   0  0  0  0  0  0  0  0  0  0  0  0
   10.2285   -5.5910   -1.5957 O   0  0  0  0  0  0  0  0  0  0  0  0
   11.4003   -4.8143   -1.7996 C   0  0  0  0  0  0  0  0  0  0  0  0
   11.2861   -3.5920   -1.0086 N   0  0  0  0  0  0  0  0  0  0  0  0
    8.3157   -5.2198   -0.0120 C   0  0  0  0  0  0  0  0  0  0  0  0
    8.0242   -3.9405    1.1641 S   0  0  0  0  0  0  0  0  0  0  0  0
    7.5451   -6.4164   -0.1429 C   0  0  0  0  0  0  0  0  0  0  0  0
    6.2897   -6.6731    0.2788 C   0  0  0  0  0  0  0  0  0  0  0  0
    5.3199   -5.7373    0.7514 C   0  0  0  0  0  0  0  0  0  0  0  0
    5.0678   -4.4372    0.3984 C   0  0  0  0  0  0  0  0  0  0  0  0
    3.9210   -3.8782    1.0009 C   0  0  0  0  0  0  0  0  0  0  0  0
    3.7047   -2.6075    0.5617 O   0  0  0  0  0  0  0  0  0  0  0  0
    4.7265   -2.3289   -0.3848 C   0  0  0  0  0  0  0  0  0  0  0  0
    5.6351   -3.4655   -0.4068 N   0  0  0  0  0  0  0  0  0  0  0  0
    3.2284   -4.7103    1.8416 C   0  0  0  0  0  0  0  0  0  0  0  0
    4.0565   -6.2654    1.8653 S   0  0  0  0  0  0  0  0  0  0  0  0
    2.0515   -4.4303    2.5764 C   0  0  0  0  0  0  0  0  0  0  0  0
    1.4088   -5.3075    3.3812 C   0  0  0  0  0  0  0  0  0  0  0  0
    0.2270   -5.0102    4.1057 C   0  0  0  0  0  0  0  0  0  0  0  0
   -0.5196   -3.4182    4.0092 S   0  0  0  0  0  0  0  0  0  0  0  0
   -0.4818   -5.8594    4.9395 C   0  0  0  0  0  0  0  0  0  0  0  0
   -1.6059   -5.2457    5.4907 C   0  0  0  0  0  0  0  0  0  0  0  0
   -2.7031   -5.5870    6.3897 C   0  0  0  0  0  0  0  0  0  0  0  0
   -2.9638   -7.0192    7.1341 S   0  0  0  0  0  0  0  0  0  0  0  0
   -1.7577   -3.9145    5.0766 C   0  0  0  0  0  0  0  0  0  0  0  0
   -2.9239   -3.3843    5.6843 C   0  0  0  0  0  0  0  0  0  0  0  0
   -3.8053   -1.9273    5.7145 S   0  0  0  0  0  0  0  0  0  0  0  0
   -3.5095   -4.3832    6.4787 C   0  0  0  0  0  0  0  0  0  0  0  0
   -4.6729   -3.9468    7.1174 C   0  0  0  0  0  0  0  0  0  0  0  0
   -4.9929   -2.6405    6.8060 C   0  0  0  0  0  0  0  0  0  0  0  0
   -6.0659   -1.8830    7.3700 C   0  0  0  0  0  0  0  0  0  0  0  0
   -6.4998   -0.6655    6.9956 C   0  0  0  0  0  0  0  0  0  0  0  0
   -6.0804    0.0502    5.8106 C   0  0  0  0  0  0  0  0  0  0  0  0
   -6.2736   -0.6985    4.2217 S   0  0  0  0  0  0  0  0  0  0  0  0
   -5.5671    1.3165    5.7187 C   0  0  0  0  0  0  0  0  0  0  0  0
   -5.2626    1.6767    4.3966 C   0  0  0  0  0  0  0  0  0  0  0  0
   -4.6564    2.7871    3.6926 C   0  0  0  0  0  0  0  0  0  0  0  0
   -4.1062    4.1925    4.3220 S   0  0  0  0  0  0  0  0  0  0  0  0
   -5.5949    0.6756    3.4731 C   0  0  0  0  0  0  0  0  0  0  0  0
   -5.2196    1.1145    2.1756 C   0  0  0  0  0  0  0  0  0  0  0  0
   -5.2375    0.5512    0.5616 S   0  0  0  0  0  0  0  0  0  0  0  0
   -4.6366    2.3833    2.2886 C   0  0  0  0  0  0  0  0  0  0  0  0
   -4.1898    2.8887    1.0697 C   0  0  0  0  0  0  0  0  0  0  0  0
   -4.4352    2.0221    0.0167 C   0  0  0  0  0  0  0  0  0  0  0  0
   -4.0929    2.2146   -1.3436 C   0  0  0  0  0  0  0  0  0  0  0  0
   -4.4418    1.3827   -2.3544 C   0  0  0  0  0  0  0  0  0  0  0  0
   -4.0726    1.5615   -3.7069 C   0  0  0  0  0  0  0  0  0  0  0  0
   -4.4587    0.8340   -4.8094 C   0  0  0  0  0  0  0  0  0  0  0  0
   -3.8965    1.2752   -6.0180 C   0  0  0  0  0  0  0  0  0  0  0  0
   -4.3048    0.4936   -7.0642 O   0  0  0  0  0  0  0  0  0  0  0  0
   -5.1434   -0.5080   -6.5083 C   0  0  0  0  0  0  0  0  0  0  0  0
   -5.3268   -0.2113   -5.0907 N   0  0  0  0  0  0  0  0  0  0  0  0
   -3.0588    2.3609   -5.9312 C   0  0  0  0  0  0  0  0  0  0  0  0
   -2.9728    2.8347   -4.2378 S   0  0  0  0  0  0  0  0  0  0  0  0
   -2.2625    2.8715   -6.9936 C   0  0  0  0  0  0  0  0  0  0  0  0
   -1.4318    3.9377   -7.0304 C   0  0  0  0  0  0  0  0  0  0  0  0
   -1.2875    4.9912   -6.0799 C   0  0  0  0  0  0  0  0  0  0  0  0
   -2.1858    5.6300   -5.2674 C   0  0  0  0  0  0  0  0  0  0  0  0
   -1.6475    6.7192   -4.5408 C   0  0  0  0  0  0  0  0  0  0  0  0
   -2.6127    7.3304   -3.7933 O   0  0  0  0  0  0  0  0  0  0  0  0
   -3.8284    6.6549   -4.0719 C   0  0  0  0  0  0  0  0  0  0  0  0
   -3.5220    5.5242   -4.9340 N   0  0  0  0  0  0  0  0  0  0  0  0
   -0.3268    6.9789   -4.7588 C   0  0  0  0  0  0  0  0  0  0  0  0
    0.2700    5.8126   -5.9326 S   0  0  0  0  0  0  0  0  0  0  0  0
    0.4943    8.0018   -4.1799 C   0  0  0  0  0  0  0  0  0  0  0  0
    1.7806    8.1900   -4.4610 C   0  0  0  0  0  0  0  0  0  0  0  0
    9.7374   -2.1915    1.2678 H   0  0  0  0  0  0  0  0  0  0  0  0
   12.2806   -5.4187   -1.5231 H   0  0  0  0  0  0  0  0  0  0  0  0
   11.4670   -4.5642   -2.8690 H   0  0  0  0  0  0  0  0  0  0  0  0
   12.1309   -3.2670   -0.5634 H   0  0  0  0  0  0  0  0  0  0  0  0
    8.0991   -7.2243   -0.6057 H   0  0  0  0  0  0  0  0  0  0  0  0
    5.9491   -7.7003    0.2533 H   0  0  0  0  0  0  0  0  0  0  0  0
    4.2611   -2.1365   -1.3666 H   0  0  0  0  0  0  0  0  0  0  0  0
    5.2608   -1.4225   -0.0625 H   0  0  0  0  0  0  0  0  0  0  0  0
    6.0571   -3.7257   -1.2831 H   0  0  0  0  0  0  0  0  0  0  0  0
    1.6697   -3.4240    2.4552 H   0  0  0  0  0  0  0  0  0  0  0  0
    1.8021   -6.3093    3.4954 H   0  0  0  0  0  0  0  0  0  0  0  0
   -0.1848   -6.8749    5.1285 H   0  0  0  0  0  0  0  0  0  0  0  0
   -5.2689   -4.5551    7.7737 H   0  0  0  0  0  0  0  0  0  0  0  0
   -6.5248   -2.3480    8.2333 H   0  0  0  0  0  0  0  0  0  0  0  0
   -7.2308   -0.1613    7.6151 H   0  0  0  0  0  0  0  0  0  0  0  0
   -5.3787    1.9376    6.5757 H   0  0  0  0  0  0  0  0  0  0  0  0
   -3.7049    3.8394    0.9426 H   0  0  0  0  0  0  0  0  0  0  0  0
   -3.5086    3.0972   -1.5687 H   0  0  0  0  0  0  0  0  0  0  0  0
   -5.0565    0.5158   -2.1431 H   0  0  0  0  0  0  0  0  0  0  0  0
   -4.6826   -1.4958   -6.6775 H   0  0  0  0  0  0  0  0  0  0  0  0
   -6.1129   -0.4776   -7.0274 H   0  0  0  0  0  0  0  0  0  0  0  0
   -5.3653   -0.9971   -4.4602 H   0  0  0  0  0  0  0  0  0  0  0  0
   -2.3035    2.2409   -7.8738 H   0  0  0  0  0  0  0  0  0  0  0  0
   -0.7714    4.0183   -7.8848 H   0  0  0  0  0  0  0  0  0  0  0  0
   -4.2578    6.3021   -3.1221 H   0  0  0  0  0  0  0  0  0  0  0  0
   -4.5343    7.3631   -4.5385 H   0  0  0  0  0  0  0  0  0  0  0  0
   -4.1967    5.2495   -5.6285 H   0  0  0  0  0  0  0  0  0  0  0  0
   -0.0249    8.6353   -3.4722 H   0  0  0  0  0  0  0  0  0  0  0  0
    2.3515    8.9755   -3.9997 H   0  0  0  0  0  0  0  0  0  0  0  0
    2.2942    7.5587   -5.1672 H   0  0  0  0  0  0  0  0  0  0  0  0
  1  2  2  0  0  0  0
  2  3  1  0  0  0  0
  3  4  1  0  0  0  0
  4  5  1  0  0  0  0
  5  6  1  0  0  0  0
  3  7  2  0  0  0  0
  7  8  1  0  0  0  0
  7  9  1  0  0  0  0
  9 10  2  0  0  0  0
 10 11  1  0  0  0  0
 11 12  2  0  0  0  0
 12 13  1  0  0  0  0
 13 14  1  0  0  0  0
 14 15  1  0  0  0  0
 15 16  1  0  0  0  0
 13 17  2  0  0  0  0
 17 18  1  0  0  0  0
 17 19  1  0  0  0  0
 19 20  2  0  0  0  0
 20 21  1  0  0  0  0
 21 22  1  0  0  0  0
 21 23  2  0  0  0  0
 23 24  1  0  0  0  0
 24 25  1  0  0  0  0
 25 26  2  0  0  0  0
 24 27  2  0  0  0  0
 27 28  1  0  0  0  0
 28 29  1  0  0  0  0
 28 30  2  0  0  0  0
 30 31  1  0  0  0  0
 31 32  2  0  0  0  0
 32 33  1  0  0  0  0
 33 34  2  0  0  0  0
 34 35  1  0  0  0  0
 35 36  1  0  0  0  0
 35 37  2  0  0  0  0
 37 38  1  0  0  0  0
 38 39  1  0  0  0  0
 39 40  2  0  0  0  0
 38 41  2  0  0  0  0
 41 42  1  0  0  0  0
 42 43  1  0  0  0  0
 42 44  2  0  0  0  0
 44 45  1  0  0  0  0
 45 46  2  0  0  0  0
 46 47  1  0  0  0  0
 47 48  2  0  0  0  0
 48 49  1  0  0  0  0
 49 50  2  0  0  0  0
 50 51  1  0  0  0  0
 51 52  1  0  0  0  0
 52 53  1  0  0  0  0
 53 54  1  0  0  0  0
 51 55  2  0  0  0  0
 55 56  1  0  0  0  0
 55 57  1  0  0  0  0
 57 58  2  0  0  0  0
 58 59  1  0  0  0  0
 59 60  2  0  0  0  0
 60 61  1  0  0  0  0
 61 62  1  0  0  0  0
 62 63  1  0  0  0  0
 63 64  1  0  0  0  0
 61 65  2  0  0  0  0
 65 66  1  0  0  0  0
 65 67  1  0  0  0  0
 67 68  2  0  0  0  0
  8  1  1  0  0  0  0
 18 11  1  0  0  0  0
 27 22  1  0  0  0  0
 41 36  1  0  0  0  0
 56 49  1  0  0  0  0
 66 59  1  0  0  0  0
  6  2  1  0  0  0  0
 16 12  1  0  0  0  0
 30 25  1  0  0  0  0
 44 39  1  0  0  0  0
 54 50  1  0  0  0  0
 64 60  1  0  0  0  0
 32 29  1  0  0  0  0
 46 43  1  0  0  0  0
  1 69  1  0  0  0  0
  5 70  1  0  0  0  0
  5 71  1  0  0  0  0
  6 72  1  0  0  0  0
  9 73  1  0  0  0  0
 10 74  1  0  0  0  0
 15 75  1  0  0  0  0
 15 76  1  0  0  0  0
 16 77  1  0  0  0  0
 19 78  1  0  0  0  0
 20 79  1  0  0  0  0
 23 80  1  0  0  0  0
 31 81  1  0  0  0  0
 33 82  1  0  0  0  0
 34 83  1  0  0  0  0
 37 84  1  0  0  0  0
 45 85  1  0  0  0  0
 47 86  1  0  0  0  0
 48 87  1  0  0  0  0
 53 88  1  0  0  0  0
 53 89  1  0  0  0  0
 54 90  1  0  0  0  0
 57 91  1  0  0  0  0
 58 92  1  0  0  0  0
 63 93  1  0  0  0  0
 63 94  1  0  0  0  0
 64 95  1  0  0  0  0
 67 96  1  0  0  0  0
 68 97  1  0  0  0  0
 68 98  1  0  0  0  0
M  END
