
  xtb     03022223263D
 energy: -462.314190587587 gnorm: 0.000453069628 xtb: 6.4.1 (unknown)
237262  0     0  0            999 V2000
    4.0872    0.4229    7.1621 C   0  0  0  0  0  0  0  0  0  0  0  0
    4.5653    1.6414    6.8392 C   0  0  0  0  0  0  0  0  0  0  0  0
    4.5517    1.8861    5.4347 C   0  0  0  0  0  0  0  0  0  0  0  0
    4.9277    3.0560    4.7547 C   0  0  0  0  0  0  0  0  0  0  0  0
    5.5075    4.1894    5.4571 C   0  0  0  0  0  0  0  0  0  0  0  0
    4.8609    5.7942    5.2936 S   0  0  0  0  0  0  0  0  0  0  0  0
    6.0605    6.4682    6.3430 C   0  0  0  0  0  0  0  0  0  0  0  0
    6.0506    7.9136    6.6998 C   0  0  0  0  0  0  0  0  0  0  0  0
    5.1073    8.1816    7.8750 C   0  0  0  0  0  0  0  0  0  0  0  0
    6.9024    5.4935    6.7891 C   0  0  0  0  0  0  0  0  0  0  0  0
    8.2228    5.7788    7.8475 Cl  0  0  0  0  0  0  0  0  0  0  0  0
    6.5952    4.2012    6.2853 C   0  0  0  0  0  0  0  0  0  0  0  0
    7.5560    2.8213    6.6314 Cl  0  0  0  0  0  0  0  0  0  0  0  0
    4.7350    3.0736    3.3801 C   0  0  0  0  0  0  0  0  0  0  0  0
    4.2396    1.9590    2.6609 C   0  0  0  0  0  0  0  0  0  0  0  0
    3.8380    0.7963    3.3399 C   0  0  0  0  0  0  0  0  0  0  0  0
    3.2284   -0.3217    2.6386 C   0  0  0  0  0  0  0  0  0  0  0  0
    3.7772   -1.9497    2.9055 S   0  0  0  0  0  0  0  0  0  0  0  0
    2.5998   -2.6108    1.8247 C   0  0  0  0  0  0  0  0  0  0  0  0
    2.4762   -4.0848    1.6604 C   0  0  0  0  0  0  0  0  0  0  0  0
    1.7825   -4.6927    2.8813 C   0  0  0  0  0  0  0  0  0  0  0  0
    1.8297   -1.6208    1.2913 C   0  0  0  0  0  0  0  0  0  0  0  0
    2.1848   -0.3219    1.7514 C   0  0  0  0  0  0  0  0  0  0  0  0
    1.2988    1.0723    1.2910 Cl  0  0  0  0  0  0  0  0  0  0  0  0
    0.5444   -1.8999    0.1829 Cl  0  0  0  0  0  0  0  0  0  0  0  0
    4.0211    0.7865    4.7188 C   0  0  0  0  0  0  0  0  0  0  0  0
    3.5798   -0.5088    5.7961 S   0  0  0  0  0  0  0  0  0  0  0  0
    4.2192    2.2035    1.2675 C   0  0  0  0  0  0  0  0  0  0  0  0
    4.6057    3.4662    0.9288 C   0  0  0  0  0  0  0  0  0  0  0  0
    5.0885    4.4114    2.3194 S   0  0  0  0  0  0  0  0  0  0  0  0
    4.5006    4.0319   -0.3775 C   0  0  0  0  0  0  0  0  0  0  0  0
    4.3718    5.3387   -0.7424 C   0  0  0  0  0  0  0  0  0  0  0  0
    3.9811    5.5089   -2.0974 C   0  0  0  0  0  0  0  0  0  0  0  0
    3.5677    6.6973   -2.7349 C   0  0  0  0  0  0  0  0  0  0  0  0
    3.7661    7.9821   -2.0936 C   0  0  0  0  0  0  0  0  0  0  0  0
    2.4983    9.1656   -1.9682 S   0  0  0  0  0  0  0  0  0  0  0  0
    3.5185   10.2838   -1.1314 C   0  0  0  0  0  0  0  0  0  0  0  0
    2.9966   11.5889   -0.6411 C   0  0  0  0  0  0  0  0  0  0  0  0
    2.4007   11.4464    0.7617 C   0  0  0  0  0  0  0  0  0  0  0  0
    4.7654    9.7577   -0.9644 C   0  0  0  0  0  0  0  0  0  0  0  0
    6.0526   10.5791   -0.1817 Cl  0  0  0  0  0  0  0  0  0  0  0  0
    4.9118    8.4557   -1.5102 C   0  0  0  0  0  0  0  0  0  0  0  0
    6.4104    7.6195   -1.5024 Cl  0  0  0  0  0  0  0  0  0  0  0  0
    2.9040    6.5557   -3.9498 C   0  0  0  0  0  0  0  0  0  0  0  0
    2.7837    5.3078   -4.6066 C   0  0  0  0  0  0  0  0  0  0  0  0
    3.2877    4.1322   -4.0231 C   0  0  0  0  0  0  0  0  0  0  0  0
    3.0536    2.8353   -4.6324 C   0  0  0  0  0  0  0  0  0  0  0  0
    2.3163    1.5574   -3.7066 S   0  0  0  0  0  0  0  0  0  0  0  0
    2.2705    0.4894   -5.0644 C   0  0  0  0  0  0  0  0  0  0  0  0
    1.7381   -0.8966   -4.9440 C   0  0  0  0  0  0  0  0  0  0  0  0
    0.5981   -1.0006   -3.9374 C   0  0  0  0  0  0  0  0  0  0  0  0
    2.8043    1.0991   -6.1610 C   0  0  0  0  0  0  0  0  0  0  0  0
    3.2431    2.4289   -5.9249 C   0  0  0  0  0  0  0  0  0  0  0  0
    3.9947    3.3788   -7.1407 Cl  0  0  0  0  0  0  0  0  0  0  0  0
    2.9435    0.3439   -7.6918 Cl  0  0  0  0  0  0  0  0  0  0  0  0
    3.8322    4.2636   -2.7547 C   0  0  0  0  0  0  0  0  0  0  0  0
    4.2623    2.9356   -1.7216 S   0  0  0  0  0  0  0  0  0  0  0  0
    1.9103    5.3744   -5.7131 C   0  0  0  0  0  0  0  0  0  0  0  0
    1.3323    6.5997   -5.8865 C   0  0  0  0  0  0  0  0  0  0  0  0
    1.9614    7.7837   -4.7660 S   0  0  0  0  0  0  0  0  0  0  0  0
    0.0921    6.6736   -6.6098 C   0  0  0  0  0  0  0  0  0  0  0  0
   -0.2309    5.8341   -7.6349 C   0  0  0  0  0  0  0  0  0  0  0  0
   -1.5881    5.4295   -7.6166 C   0  0  0  0  0  0  0  0  0  0  0  0
   -2.1186    4.3071   -8.2713 C   0  0  0  0  0  0  0  0  0  0  0  0
   -1.4169    3.5545   -9.3001 C   0  0  0  0  0  0  0  0  0  0  0  0
    0.1555    2.8572   -9.0304 S   0  0  0  0  0  0  0  0  0  0  0  0
    0.1159    1.9938  -10.5283 C   0  0  0  0  0  0  0  0  0  0  0  0
    1.2054    1.0563  -10.9153 C   0  0  0  0  0  0  0  0  0  0  0  0
    0.8312   -0.3812  -10.5423 C   0  0  0  0  0  0  0  0  0  0  0  0
   -1.0494    2.2442  -11.1895 C   0  0  0  0  0  0  0  0  0  0  0  0
   -1.4424    1.5699  -12.7166 Cl  0  0  0  0  0  0  0  0  0  0  0  0
   -1.9250    3.1172  -10.4906 C   0  0  0  0  0  0  0  0  0  0  0  0
   -3.4527    3.5949  -11.1021 Cl  0  0  0  0  0  0  0  0  0  0  0  0
   -3.2488    3.7457   -7.6934 C   0  0  0  0  0  0  0  0  0  0  0  0
   -3.9296    4.3206   -6.5974 C   0  0  0  0  0  0  0  0  0  0  0  0
   -3.5581    5.6057   -6.1370 C   0  0  0  0  0  0  0  0  0  0  0  0
   -4.3639    6.2821   -5.1492 C   0  0  0  0  0  0  0  0  0  0  0  0
   -3.6887    7.2253   -3.8518 S   0  0  0  0  0  0  0  0  0  0  0  0
   -5.2496    7.6412   -3.2341 C   0  0  0  0  0  0  0  0  0  0  0  0
   -5.3964    8.5434   -2.0596 C   0  0  0  0  0  0  0  0  0  0  0  0
   -5.3250   10.0108   -2.4898 C   0  0  0  0  0  0  0  0  0  0  0  0
   -6.2300    7.0914   -4.0068 C   0  0  0  0  0  0  0  0  0  0  0  0
   -5.7363    6.3158   -5.0865 C   0  0  0  0  0  0  0  0  0  0  0  0
   -6.7823    5.5865   -6.2331 Cl  0  0  0  0  0  0  0  0  0  0  0  0
   -7.9081    7.3029   -3.7162 Cl  0  0  0  0  0  0  0  0  0  0  0  0
   -2.3256    6.0712   -6.5888 C   0  0  0  0  0  0  0  0  0  0  0  0
   -1.3417    7.2599   -5.7689 S   0  0  0  0  0  0  0  0  0  0  0  0
   -4.6620    3.3458   -5.8702 C   0  0  0  0  0  0  0  0  0  0  0  0
   -4.5181    2.0810   -6.3666 C   0  0  0  0  0  0  0  0  0  0  0  0
   -3.6929    2.0768   -7.9210 S   0  0  0  0  0  0  0  0  0  0  0  0
   -4.5670    0.8494   -5.6486 C   0  0  0  0  0  0  0  0  0  0  0  0
   -3.9546   -0.3035   -6.0533 C   0  0  0  0  0  0  0  0  0  0  0  0
   -3.7161   -1.2212   -5.0071 C   0  0  0  0  0  0  0  0  0  0  0  0
   -2.9042   -2.3703   -5.0642 C   0  0  0  0  0  0  0  0  0  0  0  0
   -2.3720   -2.8322   -6.3333 C   0  0  0  0  0  0  0  0  0  0  0  0
   -0.6706   -3.1167   -6.5533 S   0  0  0  0  0  0  0  0  0  0  0  0
   -0.8692   -3.5082   -8.2265 C   0  0  0  0  0  0  0  0  0  0  0  0
    0.2909   -3.9189   -9.0639 C   0  0  0  0  0  0  0  0  0  0  0  0
    0.5742   -5.4145   -8.9044 C   0  0  0  0  0  0  0  0  0  0  0  0
   -2.1852   -3.4404   -8.5751 C   0  0  0  0  0  0  0  0  0  0  0  0
   -2.7742   -3.7714  -10.1521 Cl  0  0  0  0  0  0  0  0  0  0  0  0
   -3.0391   -3.0514   -7.5076 C   0  0  0  0  0  0  0  0  0  0  0  0
   -4.7435   -2.9464   -7.6804 Cl  0  0  0  0  0  0  0  0  0  0  0  0
   -2.5831   -2.9670   -3.8539 C   0  0  0  0  0  0  0  0  0  0  0  0
   -3.0840   -2.5048   -2.6118 C   0  0  0  0  0  0  0  0  0  0  0  0
   -3.9191   -1.3688   -2.5586 C   0  0  0  0  0  0  0  0  0  0  0  0
   -4.3525   -0.8454   -1.2769 C   0  0  0  0  0  0  0  0  0  0  0  0
   -3.2046   -0.6092    0.0093 S   0  0  0  0  0  0  0  0  0  0  0  0
   -4.4251   -0.0655    1.1032 C   0  0  0  0  0  0  0  0  0  0  0  0
   -4.0850    0.2213    2.5232 C   0  0  0  0  0  0  0  0  0  0  0  0
   -3.8408   -1.0844    3.2858 C   0  0  0  0  0  0  0  0  0  0  0  0
   -5.6438   -0.0566    0.4908 C   0  0  0  0  0  0  0  0  0  0  0  0
   -5.6058   -0.4849   -0.8630 C   0  0  0  0  0  0  0  0  0  0  0  0
   -7.0141   -0.6189   -1.8281 Cl  0  0  0  0  0  0  0  0  0  0  0  0
   -7.1015    0.4172    1.2616 Cl  0  0  0  0  0  0  0  0  0  0  0  0
   -4.2080   -0.7458   -3.7646 C   0  0  0  0  0  0  0  0  0  0  0  0
   -5.0041    0.7958   -3.9511 S   0  0  0  0  0  0  0  0  0  0  0  0
   -2.6239   -3.2915   -1.5344 C   0  0  0  0  0  0  0  0  0  0  0  0
   -1.7532   -4.2843   -1.8967 C   0  0  0  0  0  0  0  0  0  0  0  0
   -1.5175   -4.3260   -3.6407 S   0  0  0  0  0  0  0  0  0  0  0  0
   -1.1613   -5.1738   -0.9786 C   0  0  0  0  0  0  0  0  0  0  0  0
   -0.1769   -6.1048   -1.0546 C   0  0  0  0  0  0  0  0  0  0  0  0
    0.6183   -6.3438   -2.3047 C   0  0  0  0  0  0  0  0  0  0  0  0
    0.0167   -7.4645   -3.1546 C   0  0  0  0  0  0  0  0  0  0  0  0
    0.0576   -6.8479    0.1698 C   0  0  0  0  0  0  0  0  0  0  0  0
    1.0535   -7.9682    0.2660 C   0  0  0  0  0  0  0  0  0  0  0  0
    0.3475   -9.3272    0.2875 C   0  0  0  0  0  0  0  0  0  0  0  0
   -0.7287   -6.5043    1.2238 C   0  0  0  0  0  0  0  0  0  0  0  0
   -1.8150   -5.1687    0.7070 S   0  0  0  0  0  6  0  0  0  0  0  0
   -1.4800   -3.9532    1.4035 O   0  0  0  0  0  0  0  0  0  0  0  0
   -3.2002   -5.5531    0.7117 O   0  0  0  0  0  0  0  0  0  0  0  0
   -0.7400   -6.9458    2.5632 C   0  0  0  0  0  0  0  0  0  0  0  0
   -1.6604   -6.5057    3.4549 C   0  0  0  0  0  0  0  0  0  0  0  0
   -1.6538   -6.8264    4.8411 C   0  0  0  0  0  0  0  0  0  0  0  0
   -0.6689   -7.4258    5.5794 C   0  0  0  0  0  0  0  0  0  0  0  0
   -0.9747   -7.5341    6.9548 C   0  0  0  0  0  0  0  0  0  0  0  0
   -0.1643   -8.0447    7.9856 C   0  0  0  0  0  0  0  0  0  0  0  0
    1.2126   -8.4275    7.7277 C   0  0  0  0  0  0  0  0  0  0  0  0
    1.8456   -9.9707    8.2175 S   0  0  0  0  0  0  0  0  0  0  0  0
    3.4147   -9.6174    7.5804 C   0  0  0  0  0  0  0  0  0  0  0  0
    4.5138  -10.6207    7.6268 C   0  0  0  0  0  0  0  0  0  0  0  0
    4.4990  -11.5075    6.3793 C   0  0  0  0  0  0  0  0  0  0  0  0
    3.4303   -8.3747    7.0197 C   0  0  0  0  0  0  0  0  0  0  0  0
    4.8137   -7.6736    6.2841 Cl  0  0  0  0  0  0  0  0  0  0  0  0
    2.1869   -7.6942    7.1050 C   0  0  0  0  0  0  0  0  0  0  0  0
    1.9838   -6.0797    6.5514 Cl  0  0  0  0  0  0  0  0  0  0  0  0
   -0.7364   -8.1342    9.2481 C   0  0  0  0  0  0  0  0  0  0  0  0
   -2.0488   -7.6853    9.5319 C   0  0  0  0  0  0  0  0  0  0  0  0
   -2.8248   -7.0958    8.5214 C   0  0  0  0  0  0  0  0  0  0  0  0
   -4.1434   -6.5498    8.7999 C   0  0  0  0  0  0  0  0  0  0  0  0
   -5.5364   -7.0287    7.8778 S   0  0  0  0  0  0  0  0  0  0  0  0
   -6.5857   -5.9882    8.7781 C   0  0  0  0  0  0  0  0  0  0  0  0
   -8.0301   -5.8741    8.4368 C   0  0  0  0  0  0  0  0  0  0  0  0
   -8.2321   -4.9696    7.2186 C   0  0  0  0  0  0  0  0  0  0  0  0
   -5.8808   -5.3075    9.7258 C   0  0  0  0  0  0  0  0  0  0  0  0
   -4.4969   -5.6283    9.7458 C   0  0  0  0  0  0  0  0  0  0  0  0
   -3.3849   -4.8634   10.8065 Cl  0  0  0  0  0  0  0  0  0  0  0  0
   -6.5763   -4.1708   10.8077 Cl  0  0  0  0  0  0  0  0  0  0  0  0
   -2.2744   -7.0497    7.2471 C   0  0  0  0  0  0  0  0  0  0  0  0
   -3.0329   -6.3868    5.8292 S   0  0  0  0  0  0  0  0  0  0  0  0
   -2.4007   -7.9210   10.8930 C   0  0  0  0  0  0  0  0  0  0  0  0
   -1.4009   -8.4823   11.6022 C   0  0  0  0  0  0  0  0  0  0  0  0
    0.0314   -8.7710   10.6758 S   0  0  0  0  0  0  0  0  0  0  0  0
    3.9901   -0.0079    8.1395 H   0  0  0  0  0  0  0  0  0  0  0  0
    4.9066    2.3587    7.5621 H   0  0  0  0  0  0  0  0  0  0  0  0
    7.0646    8.2145    6.9693 H   0  0  0  0  0  0  0  0  0  0  0  0
    5.7294    8.4970    5.8354 H   0  0  0  0  0  0  0  0  0  0  0  0
    4.0926    7.8865    7.6186 H   0  0  0  0  0  0  0  0  0  0  0  0
    5.4240    7.6172    8.7483 H   0  0  0  0  0  0  0  0  0  0  0  0
    5.1118    9.2394    8.1236 H   0  0  0  0  0  0  0  0  0  0  0  0
    3.4704   -4.5232    1.5487 H   0  0  0  0  0  0  0  0  0  0  0  0
    1.8923   -4.2947    0.7623 H   0  0  0  0  0  0  0  0  0  0  0  0
    2.3037   -4.4061    3.7920 H   0  0  0  0  0  0  0  0  0  0  0  0
    0.7541   -4.3438    2.9372 H   0  0  0  0  0  0  0  0  0  0  0  0
    1.7788   -5.7765    2.8108 H   0  0  0  0  0  0  0  0  0  0  0  0
    3.9103    1.4778    0.5380 H   0  0  0  0  0  0  0  0  0  0  0  0
    4.4651    6.1459   -0.0388 H   0  0  0  0  0  0  0  0  0  0  0  0
    2.2302   11.9520   -1.3274 H   0  0  0  0  0  0  0  0  0  0  0  0
    3.8170   12.3087   -0.6168 H   0  0  0  0  0  0  0  0  0  0  0  0
    1.5799   10.7335    0.7517 H   0  0  0  0  0  0  0  0  0  0  0  0
    2.0267   12.4062    1.1074 H   0  0  0  0  0  0  0  0  0  0  0  0
    3.1578   11.0955    1.4584 H   0  0  0  0  0  0  0  0  0  0  0  0
    1.4005   -1.2269   -5.9287 H   0  0  0  0  0  0  0  0  0  0  0  0
    2.5498   -1.5624   -4.6342 H   0  0  0  0  0  0  0  0  0  0  0  0
   -0.2310   -0.3609   -4.2304 H   0  0  0  0  0  0  0  0  0  0  0  0
    0.9325   -0.7016   -2.9467 H   0  0  0  0  0  0  0  0  0  0  0  0
    0.2436   -2.0262   -3.8896 H   0  0  0  0  0  0  0  0  0  0  0  0
    1.6073    4.5121   -6.2770 H   0  0  0  0  0  0  0  0  0  0  0  0
    0.5027    5.4076   -8.2935 H   0  0  0  0  0  0  0  0  0  0  0  0
    1.3662    1.1219  -11.9934 H   0  0  0  0  0  0  0  0  0  0  0  0
    2.1263    1.3383  -10.4040 H   0  0  0  0  0  0  0  0  0  0  0  0
   -0.0781   -0.6801  -11.0571 H   0  0  0  0  0  0  0  0  0  0  0  0
    0.6663   -0.4621   -9.4706 H   0  0  0  0  0  0  0  0  0  0  0  0
    1.6331   -1.0583  -10.8242 H   0  0  0  0  0  0  0  0  0  0  0  0
   -4.6004    8.3367   -1.3424 H   0  0  0  0  0  0  0  0  0  0  0  0
   -6.3590    8.3473   -1.5839 H   0  0  0  0  0  0  0  0  0  0  0  0
   -6.1204   10.2355   -3.1958 H   0  0  0  0  0  0  0  0  0  0  0  0
   -5.4338   10.6589   -1.6245 H   0  0  0  0  0  0  0  0  0  0  0  0
   -4.3688   10.2173   -2.9646 H   0  0  0  0  0  0  0  0  0  0  0  0
   -5.1379    3.5454   -4.9264 H   0  0  0  0  0  0  0  0  0  0  0  0
   -3.5932   -0.4399   -7.0562 H   0  0  0  0  0  0  0  0  0  0  0  0
    0.0646   -3.6975  -10.1082 H   0  0  0  0  0  0  0  0  0  0  0  0
    1.1725   -3.3480   -8.7680 H   0  0  0  0  0  0  0  0  0  0  0  0
   -0.2904   -5.9964   -9.2132 H   0  0  0  0  0  0  0  0  0  0  0  0
    0.7969   -5.6465   -7.8656 H   0  0  0  0  0  0  0  0  0  0  0  0
    1.4240   -5.7011   -9.5178 H   0  0  0  0  0  0  0  0  0  0  0  0
   -4.9084    0.7726    2.9805 H   0  0  0  0  0  0  0  0  0  0  0  0
   -3.1842    0.8374    2.5648 H   0  0  0  0  0  0  0  0  0  0  0  0
   -3.0328   -1.6495    2.8253 H   0  0  0  0  0  0  0  0  0  0  0  0
   -3.5738   -0.8698    4.3172 H   0  0  0  0  0  0  0  0  0  0  0  0
   -4.7381   -1.6986    3.2785 H   0  0  0  0  0  0  0  0  0  0  0  0
   -2.9081   -3.1501   -0.5090 H   0  0  0  0  0  0  0  0  0  0  0  0
    0.6327   -5.4252   -2.8934 H   0  0  0  0  0  0  0  0  0  0  0  0
    1.6509   -6.5885   -2.0521 H   0  0  0  0  0  0  0  0  0  0  0  0
   -1.0139   -7.2313   -3.4084 H   0  0  0  0  0  0  0  0  0  0  0  0
    0.5823   -7.5744   -4.0761 H   0  0  0  0  0  0  0  0  0  0  0  0
    0.0370   -8.4101   -2.6204 H   0  0  0  0  0  0  0  0  0  0  0  0
    1.6311   -7.8540    1.1862 H   0  0  0  0  0  0  0  0  0  0  0  0
    1.7508   -7.9424   -0.5690 H   0  0  0  0  0  0  0  0  0  0  0  0
   -0.3265   -9.3960    1.1372 H   0  0  0  0  0  0  0  0  0  0  0  0
   -0.2378   -9.4694   -0.6173 H   0  0  0  0  0  0  0  0  0  0  0  0
    1.0804  -10.1277    0.3550 H   0  0  0  0  0  0  0  0  0  0  0  0
    0.0277   -7.6409    2.8778 H   0  0  0  0  0  0  0  0  0  0  0  0
   -2.4565   -5.8638    3.1053 H   0  0  0  0  0  0  0  0  0  0  0  0
    0.2533   -7.7767    5.1561 H   0  0  0  0  0  0  0  0  0  0  0  0
    5.4681  -10.0939    7.6870 H   0  0  0  0  0  0  0  0  0  0  0  0
    4.3985  -11.2413    8.5165 H   0  0  0  0  0  0  0  0  0  0  0  0
    3.5537  -12.0397    6.3057 H   0  0  0  0  0  0  0  0  0  0  0  0
    4.6291  -10.9018    5.4861 H   0  0  0  0  0  0  0  0  0  0  0  0
    5.3058  -12.2335    6.4285 H   0  0  0  0  0  0  0  0  0  0  0  0
   -8.5612   -5.4601    9.2956 H   0  0  0  0  0  0  0  0  0  0  0  0
   -8.4320   -6.8658    8.2211 H   0  0  0  0  0  0  0  0  0  0  0  0
   -7.7052   -5.3738    6.3577 H   0  0  0  0  0  0  0  0  0  0  0  0
   -7.8512   -3.9721    7.4220 H   0  0  0  0  0  0  0  0  0  0  0  0
   -9.2895   -4.8967    6.9795 H   0  0  0  0  0  0  0  0  0  0  0  0
   -3.3651   -7.6870   11.3041 H   0  0  0  0  0  0  0  0  0  0  0  0
   -1.4033   -8.7602   12.6380 H   0  0  0  0  0  0  0  0  0  0  0  0
  1  2  2  0  0  0  0
  2  3  1  0  0  0  0
  3  4  2  0  0  0  0
  4  5  1  0  0  0  0
  5  6  1  0  0  0  0
  6  7  1  0  0  0  0
  7  8  1  0  0  0  0
  8  9  1  0  0  0  0
  7 10  2  0  0  0  0
 10 11  1  0  0  0  0
 10 12  1  0  0  0  0
 12 13  1  0  0  0  0
  4 14  1  0  0  0  0
 14 15  2  0  0  0  0
 15 16  1  0  0  0  0
 16 17  1  0  0  0  0
 17 18  1  0  0  0  0
 18 19  1  0  0  0  0
 19 20  1  0  0  0  0
 20 21  1  0  0  0  0
 19 22  2  0  0  0  0
 22 23  1  0  0  0  0
 23 24  1  0  0  0  0
 22 25  1  0  0  0  0
 16 26  2  0  0  0  0
 26 27  1  0  0  0  0
 15 28  1  0  0  0  0
 28 29  2  0  0  0  0
 29 30  1  0  0  0  0
 29 31  1  0  0  0  0
 31 32  2  0  0  0  0
 32 33  1  0  0  0  0
 33 34  2  0  0  0  0
 34 35  1  0  0  0  0
 35 36  1  0  0  0  0
 36 37  1  0  0  0  0
 37 38  1  0  0  0  0
 38 39  1  0  0  0  0
 37 40  2  0  0  0  0
 40 41  1  0  0  0  0
 40 42  1  0  0  0  0
 42 43  1  0  0  0  0
 34 44  1  0  0  0  0
 44 45  2  0  0  0  0
 45 46  1  0  0  0  0
 46 47  1  0  0  0  0
 47 48  1  0  0  0  0
 48 49  1  0  0  0  0
 49 50  1  0  0  0  0
 50 51  1  0  0  0  0
 49 52  2  0  0  0  0
 52 53  1  0  0  0  0
 53 54  1  0  0  0  0
 52 55  1  0  0  0  0
 46 56  2  0  0  0  0
 56 57  1  0  0  0  0
 45 58  1  0  0  0  0
 58 59  2  0  0  0  0
 59 60  1  0  0  0  0
 59 61  1  0  0  0  0
 61 62  2  0  0  0  0
 62 63  1  0  0  0  0
 63 64  2  0  0  0  0
 64 65  1  0  0  0  0
 65 66  1  0  0  0  0
 66 67  1  0  0  0  0
 67 68  1  0  0  0  0
 68 69  1  0  0  0  0
 67 70  2  0  0  0  0
 70 71  1  0  0  0  0
 70 72  1  0  0  0  0
 72 73  1  0  0  0  0
 64 74  1  0  0  0  0
 74 75  2  0  0  0  0
 75 76  1  0  0  0  0
 76 77  1  0  0  0  0
 77 78  1  0  0  0  0
 78 79  1  0  0  0  0
 79 80  1  0  0  0  0
 80 81  1  0  0  0  0
 79 82  2  0  0  0  0
 82 83  1  0  0  0  0
 83 84  1  0  0  0  0
 82 85  1  0  0  0  0
 76 86  2  0  0  0  0
 86 87  1  0  0  0  0
 75 88  1  0  0  0  0
 88 89  2  0  0  0  0
 89 90  1  0  0  0  0
 89 91  1  0  0  0  0
 91 92  2  0  0  0  0
 92 93  1  0  0  0  0
 93 94  2  0  0  0  0
 94 95  1  0  0  0  0
 95 96  1  0  0  0  0
 96 97  1  0  0  0  0
 97 98  1  0  0  0  0
 98 99  1  0  0  0  0
 97100  2  0  0  0  0
100101  1  0  0  0  0
100102  1  0  0  0  0
102103  1  0  0  0  0
 94104  1  0  0  0  0
104105  2  0  0  0  0
105106  1  0  0  0  0
106107  1  0  0  0  0
107108  1  0  0  0  0
108109  1  0  0  0  0
109110  1  0  0  0  0
110111  1  0  0  0  0
109112  2  0  0  0  0
112113  1  0  0  0  0
113114  1  0  0  0  0
112115  1  0  0  0  0
106116  2  0  0  0  0
116117  1  0  0  0  0
105118  1  0  0  0  0
118119  2  0  0  0  0
119120  1  0  0  0  0
119121  1  0  0  0  0
121122  2  0  0  0  0
122123  1  0  0  0  0
123124  1  0  0  0  0
122125  1  0  0  0  0
125126  1  0  0  0  0
126127  1  0  0  0  0
125128  2  0  0  0  0
128129  1  0  0  0  0
129130  2  0  0  0  0
129131  2  0  0  0  0
128132  1  0  0  0  0
132133  2  0  0  0  0
133134  1  0  0  0  0
134135  2  0  0  0  0
135136  1  0  0  0  0
136137  2  0  0  0  0
137138  1  0  0  0  0
138139  1  0  0  0  0
139140  1  0  0  0  0
140141  1  0  0  0  0
141142  1  0  0  0  0
140143  2  0  0  0  0
143144  1  0  0  0  0
143145  1  0  0  0  0
145146  1  0  0  0  0
137147  1  0  0  0  0
147148  2  0  0  0  0
148149  1  0  0  0  0
149150  1  0  0  0  0
150151  1  0  0  0  0
151152  1  0  0  0  0
152153  1  0  0  0  0
153154  1  0  0  0  0
152155  2  0  0  0  0
155156  1  0  0  0  0
156157  1  0  0  0  0
155158  1  0  0  0  0
149159  2  0  0  0  0
159160  1  0  0  0  0
148161  1  0  0  0  0
161162  2  0  0  0  0
162163  1  0  0  0  0
 27  1  1  0  0  0  0
 57 31  1  0  0  0  0
 87 61  1  0  0  0  0
117 91  1  0  0  0  0
129121  1  0  0  0  0
160134  1  0  0  0  0
 26  3  1  0  0  0  0
 56 33  1  0  0  0  0
 86 63  1  0  0  0  0
116 93  1  0  0  0  0
159136  1  0  0  0  0
 12  5  2  0  0  0  0
 30 14  1  0  0  0  0
 42 35  2  0  0  0  0
 60 44  1  0  0  0  0
 72 65  2  0  0  0  0
 90 74  1  0  0  0  0
102 95  2  0  0  0  0
120104  1  0  0  0  0
145138  2  0  0  0  0
163147  1  0  0  0  0
 23 17  2  0  0  0  0
 53 47  2  0  0  0  0
 83 77  2  0  0  0  0
113107  2  0  0  0  0
156150  2  0  0  0  0
  1164  1  0  0  0  0
  2165  1  0  0  0  0
  8166  1  0  0  0  0
  8167  1  0  0  0  0
  9168  1  0  0  0  0
  9169  1  0  0  0  0
  9170  1  0  0  0  0
 20171  1  0  0  0  0
 20172  1  0  0  0  0
 21173  1  0  0  0  0
 21174  1  0  0  0  0
 21175  1  0  0  0  0
 28176  1  0  0  0  0
 32177  1  0  0  0  0
 38178  1  0  0  0  0
 38179  1  0  0  0  0
 39180  1  0  0  0  0
 39181  1  0  0  0  0
 39182  1  0  0  0  0
 50183  1  0  0  0  0
 50184  1  0  0  0  0
 51185  1  0  0  0  0
 51186  1  0  0  0  0
 51187  1  0  0  0  0
 58188  1  0  0  0  0
 62189  1  0  0  0  0
 68190  1  0  0  0  0
 68191  1  0  0  0  0
 69192  1  0  0  0  0
 69193  1  0  0  0  0
 69194  1  0  0  0  0
 80195  1  0  0  0  0
 80196  1  0  0  0  0
 81197  1  0  0  0  0
 81198  1  0  0  0  0
 81199  1  0  0  0  0
 88200  1  0  0  0  0
 92201  1  0  0  0  0
 98202  1  0  0  0  0
 98203  1  0  0  0  0
 99204  1  0  0  0  0
 99205  1  0  0  0  0
 99206  1  0  0  0  0
110207  1  0  0  0  0
110208  1  0  0  0  0
111209  1  0  0  0  0
111210  1  0  0  0  0
111211  1  0  0  0  0
118212  1  0  0  0  0
123213  1  0  0  0  0
123214  1  0  0  0  0
124215  1  0  0  0  0
124216  1  0  0  0  0
124217  1  0  0  0  0
126218  1  0  0  0  0
126219  1  0  0  0  0
127220  1  0  0  0  0
127221  1  0  0  0  0
127222  1  0  0  0  0
132223  1  0  0  0  0
133224  1  0  0  0  0
135225  1  0  0  0  0
141226  1  0  0  0  0
141227  1  0  0  0  0
142228  1  0  0  0  0
142229  1  0  0  0  0
142230  1  0  0  0  0
153231  1  0  0  0  0
153232  1  0  0  0  0
154233  1  0  0  0  0
154234  1  0  0  0  0
154235  1  0  0  0  0
161236  1  0  0  0  0
162237  1  0  0  0  0
M  END
