224

C         -8.41080      -11.06900       11.66760
C         -8.38690       -9.72200       11.61930
C         -7.71980       -9.21900       10.46240
C         -7.47950       -7.88260       10.11230
C         -7.99260       -6.76510       10.91420
C         -9.34030       -6.68760       11.26290
C         -9.81790       -5.61300       11.98030
C         -8.97470       -4.58120       12.39470
S         -9.70330       -3.27840       13.33400
C         -8.68550       -1.80430       12.92260
C         -9.50430       -0.55630       13.18730
C         -7.62620       -4.68960       12.06720
F         -6.73270       -3.76250       12.47940
C         -7.13990       -5.74700       11.32570
C         -6.74200       -7.66380        8.95770
C         -6.25010       -8.71300        8.14370
C         -6.48840      -10.05120        8.49570
C         -5.95530      -11.14850        7.67940
C         -4.60410      -11.18190        7.33560
C         -4.10710      -12.18700        6.53440
C         -4.93390      -13.19720        6.04880
S         -4.19990      -14.44030        5.02430
C         -5.42570      -14.66710        3.68170
C         -5.77370      -13.36250        2.99450
C         -6.26910      -13.17900        6.43920
C         -6.78300      -12.17160        7.23100
F         -7.11510      -14.15270        6.04110
C         -7.23080      -10.26890        9.64690
S         -7.62980      -11.82740       10.32230
C         -5.58670       -8.22130        6.99120
C         -5.55170       -6.85950        6.92000
S         -6.34980       -6.10400        8.28340
C         -4.95080       -6.06610        5.89480
C         -4.17640       -6.50720        4.86110
C         -3.73100       -5.47430        3.99940
C         -2.89480       -5.58800        2.87380
C         -2.41920       -6.89440        2.40450
C         -1.07000       -7.11110        2.12770
C         -0.62760       -8.34870        1.71530
C         -1.50580       -9.41880        1.54620
S         -0.80910      -10.93930        0.97680
C         -1.77940      -12.24390        1.82050
C         -1.75150      -12.09850        3.32790
C         -2.85480       -9.17680        1.78820
F         -3.78080      -10.14710        1.60570
C         -3.30970       -7.94830        2.22200
C         -2.54270       -4.40570        2.23960
C         -2.99770       -3.13720        2.67550
C         -3.82410       -3.02130        3.80550
C         -4.24040       -1.69560        4.28050
C         -3.28560       -0.70340        4.50330
C         -3.66490        0.56610        4.88260
C         -5.00680        0.89360        5.05620
S         -5.40430        2.55420        5.53400
C         -6.72650        3.00130        4.34770
C         -6.23220        2.97030        2.91530
C         -5.94450       -0.12010        4.88690
C         -5.58000       -1.39410        4.49720
F         -7.25690        0.12050        5.08880
C         -4.18430       -4.20160        4.43290
S         -5.16690       -4.32920        5.86640
C         -2.54800       -2.09410        1.83280
C         -1.75980       -2.51960        0.80310
S         -1.55020       -4.25770        0.81010
C         -1.12230       -1.67880       -0.15910
C         -1.14370       -0.31410       -0.16040
C         -0.37450        0.26730       -1.19530
C         -0.18120        1.63770       -1.44220
C         -0.92700        2.63330       -0.66230
C         -2.31220        2.52060       -0.53680
C         -3.02330        3.40490        0.24460
C         -2.38600        4.43930        0.92600
S         -3.39370        5.52080        1.90250
C         -2.43850        5.69750        3.45520
C         -2.23550        4.36510        4.14750
C         -1.01260        4.57390        0.74740
F         -0.33800        5.58400        1.33680
C         -0.28480        3.68590       -0.02050
C          0.72270        1.96210       -2.43960
C          1.36230        0.98490       -3.24500
C          1.10790       -0.38360       -3.04710
C          1.68790       -1.40070       -3.93010
C          2.32320       -2.52960       -3.42250
C          2.84740       -3.49390       -4.26150
C          2.74220       -3.37200       -5.64250
S          3.36290       -4.51790       -6.82490
C          3.72480       -6.01740       -5.84840
C          2.46430       -6.70810       -5.36350
C          2.10920       -2.22960       -6.13800
C          1.59130       -1.25740       -5.31430
F          1.99100       -2.07310       -7.47190
C          0.27160       -0.71070       -1.98960
S         -0.14980       -2.32220       -1.46450
C          2.26600        1.57310       -4.16500
C          2.31600        2.93290       -4.09250
S          1.21630        3.57460       -2.88590
C          3.17180        3.80900       -4.82180
C          3.29340        5.16030       -4.69050
C          4.29740        5.72310       -5.51800
C          4.67300        7.07190       -5.62980
C          4.07860        8.11040       -4.78010
C          4.01760        7.95390       -3.39600
C          3.47290        8.93970       -2.60110
C          2.97610       10.12010       -3.14920
S          2.34350       11.34000       -2.03330
C          0.81150       11.91530       -2.85540
C         -0.16190       10.77820       -3.09230
C          3.07060       10.27520       -4.52850
F          2.64500       11.40970       -5.12780
C          3.59770        9.29000       -5.33830
C          5.66240        7.36980       -6.55480
C          6.29900        6.38570       -7.35230
C          5.92210        5.03610       -7.24370
C          6.53990        3.99580       -8.07430
C          6.61580        4.13740       -9.45700
C          7.17450        3.15160      -10.24710
C          7.67820        1.98540       -9.68170
S          8.43440        0.66600      -10.57050
C          7.86070        0.90410      -12.28810
C          6.37220        0.65330      -12.43570
C          7.60790        1.86340       -8.29270
C          7.04940        2.83580       -7.49460
F          8.10550        0.75710       -7.70630
C          4.93400        4.74060       -6.31770
S          4.28450        3.15170       -6.00700
C          7.33070        6.94110       -8.14770
C          7.47770        8.28830       -7.98410
S          6.34110        8.95440       -6.83320
C          8.41770        9.13780       -8.63000
S          9.56550        8.53840       -9.78440
C         10.25110       10.12050      -10.00980
C          9.59760       11.05870       -9.23820
C          8.55450       10.50230       -8.45760
O          7.73570       11.13100       -7.56740
C          7.63700       12.51310       -7.60340
S          9.28260       13.31530       -7.45500
S          9.90750       12.79180       -9.33410
C         11.34390       10.29600      -10.91500
S         11.46260        9.33890      -12.36190
C         12.93000       10.09980      -12.80330
C         13.31930       11.03960      -11.89650
C         12.41810       11.15660      -10.80210
O         12.56580       11.91870       -9.68420
C         13.49300       12.95050       -9.70560
S         15.17820       12.34700      -10.11790
S         14.77210       12.02380      -12.10360
H         -8.84510      -11.69360       12.42360
H         -8.80710       -9.08910       12.37960
H        -10.02080       -7.45980       10.93770
H        -10.86460       -5.54680       12.23340
H         -7.78720       -1.82300       13.53770
H         -8.41590       -1.88260       11.87050
H        -10.40310       -0.55060       12.57470
H         -8.91280        0.32550       12.95030
H         -9.79930       -0.50780       14.23310
H         -6.08450       -5.77880       11.10450
H         -3.94080      -10.41690        7.70980
H         -3.06230      -12.20620        6.26590
H         -6.30590      -15.15930        4.09020
H         -4.92070      -15.35050        2.99900
H         -4.87760      -12.86180        2.63500
H         -6.42620      -13.56090        2.14680
H         -6.29280      -12.68990        3.67480
H         -7.83170      -12.19270        7.48280
H         -5.17700       -8.86220        6.23260
H         -3.90420       -7.53830        4.73400
H         -0.35950       -6.31160        2.26780
H          0.41990       -8.51520        1.51830
H         -2.79230      -12.23960        1.42350
H         -1.28110      -13.16120        1.50700
H         -2.24740      -12.95250        3.78540
H         -2.26570      -11.19160        3.64190
H         -0.72540      -12.05650        3.68720
H         -4.36920       -7.81450        2.37800
H         -2.23860       -0.93630        4.38150
H         -2.92370        1.33320        5.04520
H         -7.00710        4.01130        4.64500
H         -7.57380        2.33740        4.50390
H         -5.40010        3.65840        2.78130
H         -5.90590        1.96790        2.64030
H         -7.03720        3.26730        2.24590
H         -6.34990       -2.13650        4.35580
H         -2.81800       -1.06560        1.98260
H         -1.66480        0.26870        0.57600
H         -2.83120        1.73360       -1.06270
H         -4.09310        3.30710        0.34670
H         -3.05600        6.36300        4.05810
H         -1.49620        6.19290        3.23240
H         -1.66410        3.68470        3.51720
H         -1.68850        4.51700        5.07590
H         -3.19340        3.90570        4.38230
H          0.78240        3.82160       -0.09980
H          2.43340       -2.64770       -2.35560
H          3.34800       -4.34240       -3.82500
H          4.39620       -5.75040       -5.03340
H          4.26800       -6.65030       -6.55020
H          2.72480       -7.61370       -4.81920
H          1.83710       -6.97910       -6.20940
H          1.88950       -6.06030       -4.70500
H          1.08930       -0.40940       -5.75340
H          2.88870        1.00750       -4.83500
H          2.67510        5.73580       -4.02470
H          4.41660        7.05990       -2.94190
H          3.42480        8.81450       -1.53050
H          1.07480       12.42720       -3.77830
H          0.40590       12.64060       -2.15020
H         -0.38150       10.26290       -2.15950
H          0.24830       10.05670       -3.79690
H         -1.09060       11.16970       -3.50260
H          3.62610        9.45470       -6.40390
H          6.21240        5.02320       -9.92420
H          7.21890        3.30320      -11.31340
H          8.15250        1.89890      -12.62250
H          8.43600        0.16820      -12.84980
H          6.12730       -0.35400      -12.10750
H          6.08030        0.76090      -13.47860
H          5.79560        1.35680      -11.83860
H          7.03140        2.68960       -6.42630
H          7.96270        6.36500       -8.79970
H          7.17770       12.87760       -8.52850
H          7.04870       12.80550       -6.73450
H         13.43260        9.83210      -13.70980
H         13.53090       13.35450       -8.69470
H         13.23390       13.73140      -10.42820
