
  xtb     03052205133D
 energy: -401.515542311831 gnorm: 0.000240583493 xtb: 6.4.1 (unknown)
224247  0     0  0            999 V2000
   -8.4108  -11.0690   11.6676 C   0  0  0  0  0  0  0  0  0  0  0  0
   -8.3869   -9.7220   11.6193 C   0  0  0  0  0  0  0  0  0  0  0  0
   -7.7198   -9.2190   10.4624 C   0  0  0  0  0  0  0  0  0  0  0  0
   -7.4795   -7.8826   10.1123 C   0  0  0  0  0  0  0  0  0  0  0  0
   -7.9926   -6.7651   10.9142 C   0  0  0  0  0  0  0  0  0  0  0  0
   -9.3403   -6.6876   11.2629 C   0  0  0  0  0  0  0  0  0  0  0  0
   -9.8179   -5.6130   11.9803 C   0  0  0  0  0  0  0  0  0  0  0  0
   -8.9747   -4.5812   12.3947 C   0  0  0  0  0  0  0  0  0  0  0  0
   -9.7033   -3.2784   13.3340 S   0  0  0  0  0  0  0  0  0  0  0  0
   -8.6855   -1.8043   12.9226 C   0  0  0  0  0  0  0  0  0  0  0  0
   -9.5043   -0.5563   13.1873 C   0  0  0  0  0  0  0  0  0  0  0  0
   -7.6262   -4.6896   12.0672 C   0  0  0  0  0  0  0  0  0  0  0  0
   -6.7327   -3.7625   12.4794 F   0  0  0  0  0  0  0  0  0  0  0  0
   -7.1399   -5.7470   11.3257 C   0  0  0  0  0  0  0  0  0  0  0  0
   -6.7420   -7.6638    8.9577 C   0  0  0  0  0  0  0  0  0  0  0  0
   -6.2501   -8.7130    8.1437 C   0  0  0  0  0  0  0  0  0  0  0  0
   -6.4884  -10.0512    8.4957 C   0  0  0  0  0  0  0  0  0  0  0  0
   -5.9553  -11.1485    7.6794 C   0  0  0  0  0  0  0  0  0  0  0  0
   -4.6041  -11.1819    7.3356 C   0  0  0  0  0  0  0  0  0  0  0  0
   -4.1071  -12.1870    6.5344 C   0  0  0  0  0  0  0  0  0  0  0  0
   -4.9339  -13.1972    6.0488 C   0  0  0  0  0  0  0  0  0  0  0  0
   -4.1999  -14.4403    5.0243 S   0  0  0  0  0  0  0  0  0  0  0  0
   -5.4257  -14.6671    3.6817 C   0  0  0  0  0  0  0  0  0  0  0  0
   -5.7737  -13.3625    2.9945 C   0  0  0  0  0  0  0  0  0  0  0  0
   -6.2691  -13.1790    6.4392 C   0  0  0  0  0  0  0  0  0  0  0  0
   -6.7830  -12.1716    7.2310 C   0  0  0  0  0  0  0  0  0  0  0  0
   -7.1151  -14.1527    6.0411 F   0  0  0  0  0  0  0  0  0  0  0  0
   -7.2308  -10.2689    9.6469 C   0  0  0  0  0  0  0  0  0  0  0  0
   -7.6298  -11.8274   10.3223 S   0  0  0  0  0  0  0  0  0  0  0  0
   -5.5867   -8.2213    6.9912 C   0  0  0  0  0  0  0  0  0  0  0  0
   -5.5517   -6.8595    6.9200 C   0  0  0  0  0  0  0  0  0  0  0  0
   -6.3498   -6.1040    8.2834 S   0  0  0  0  0  0  0  0  0  0  0  0
   -4.9508   -6.0661    5.8948 C   0  0  0  0  0  0  0  0  0  0  0  0
   -4.1764   -6.5072    4.8611 C   0  0  0  0  0  0  0  0  0  0  0  0
   -3.7310   -5.4743    3.9994 C   0  0  0  0  0  0  0  0  0  0  0  0
   -2.8948   -5.5880    2.8738 C   0  0  0  0  0  0  0  0  0  0  0  0
   -2.4192   -6.8944    2.4045 C   0  0  0  0  0  0  0  0  0  0  0  0
   -1.0700   -7.1111    2.1277 C   0  0  0  0  0  0  0  0  0  0  0  0
   -0.6276   -8.3487    1.7153 C   0  0  0  0  0  0  0  0  0  0  0  0
   -1.5058   -9.4188    1.5462 C   0  0  0  0  0  0  0  0  0  0  0  0
   -0.8091  -10.9393    0.9768 S   0  0  0  0  0  0  0  0  0  0  0  0
   -1.7794  -12.2439    1.8205 C   0  0  0  0  0  0  0  0  0  0  0  0
   -1.7515  -12.0985    3.3279 C   0  0  0  0  0  0  0  0  0  0  0  0
   -2.8548   -9.1768    1.7882 C   0  0  0  0  0  0  0  0  0  0  0  0
   -3.7808  -10.1471    1.6057 F   0  0  0  0  0  0  0  0  0  0  0  0
   -3.3097   -7.9483    2.2220 C   0  0  0  0  0  0  0  0  0  0  0  0
   -2.5427   -4.4057    2.2396 C   0  0  0  0  0  0  0  0  0  0  0  0
   -2.9977   -3.1372    2.6755 C   0  0  0  0  0  0  0  0  0  0  0  0
   -3.8241   -3.0213    3.8055 C   0  0  0  0  0  0  0  0  0  0  0  0
   -4.2404   -1.6956    4.2805 C   0  0  0  0  0  0  0  0  0  0  0  0
   -3.2856   -0.7034    4.5033 C   0  0  0  0  0  0  0  0  0  0  0  0
   -3.6649    0.5661    4.8826 C   0  0  0  0  0  0  0  0  0  0  0  0
   -5.0068    0.8936    5.0562 C   0  0  0  0  0  0  0  0  0  0  0  0
   -5.4043    2.5542    5.5340 S   0  0  0  0  0  0  0  0  0  0  0  0
   -6.7265    3.0013    4.3477 C   0  0  0  0  0  0  0  0  0  0  0  0
   -6.2322    2.9703    2.9153 C   0  0  0  0  0  0  0  0  0  0  0  0
   -5.9445   -0.1201    4.8869 C   0  0  0  0  0  0  0  0  0  0  0  0
   -5.5800   -1.3941    4.4972 C   0  0  0  0  0  0  0  0  0  0  0  0
   -7.2569    0.1205    5.0888 F   0  0  0  0  0  0  0  0  0  0  0  0
   -4.1843   -4.2016    4.4329 C   0  0  0  0  0  0  0  0  0  0  0  0
   -5.1669   -4.3292    5.8664 S   0  0  0  0  0  0  0  0  0  0  0  0
   -2.5480   -2.0941    1.8328 C   0  0  0  0  0  0  0  0  0  0  0  0
   -1.7598   -2.5196    0.8031 C   0  0  0  0  0  0  0  0  0  0  0  0
   -1.5502   -4.2577    0.8101 S   0  0  0  0  0  0  0  0  0  0  0  0
   -1.1223   -1.6788   -0.1591 C   0  0  0  0  0  0  0  0  0  0  0  0
   -1.1437   -0.3141   -0.1604 C   0  0  0  0  0  0  0  0  0  0  0  0
   -0.3745    0.2673   -1.1953 C   0  0  0  0  0  0  0  0  0  0  0  0
   -0.1812    1.6377   -1.4422 C   0  0  0  0  0  0  0  0  0  0  0  0
   -0.9270    2.6333   -0.6623 C   0  0  0  0  0  0  0  0  0  0  0  0
   -2.3122    2.5206   -0.5368 C   0  0  0  0  0  0  0  0  0  0  0  0
   -3.0233    3.4049    0.2446 C   0  0  0  0  0  0  0  0  0  0  0  0
   -2.3860    4.4393    0.9260 C   0  0  0  0  0  0  0  0  0  0  0  0
   -3.3937    5.5208    1.9025 S   0  0  0  0  0  0  0  0  0  0  0  0
   -2.4385    5.6975    3.4552 C   0  0  0  0  0  0  0  0  0  0  0  0
   -2.2355    4.3651    4.1475 C   0  0  0  0  0  0  0  0  0  0  0  0
   -1.0126    4.5739    0.7474 C   0  0  0  0  0  0  0  0  0  0  0  0
   -0.3380    5.5840    1.3368 F   0  0  0  0  0  0  0  0  0  0  0  0
   -0.2848    3.6859   -0.0205 C   0  0  0  0  0  0  0  0  0  0  0  0
    0.7227    1.9621   -2.4396 C   0  0  0  0  0  0  0  0  0  0  0  0
    1.3623    0.9849   -3.2450 C   0  0  0  0  0  0  0  0  0  0  0  0
    1.1079   -0.3836   -3.0471 C   0  0  0  0  0  0  0  0  0  0  0  0
    1.6879   -1.4007   -3.9301 C   0  0  0  0  0  0  0  0  0  0  0  0
    2.3232   -2.5296   -3.4225 C   0  0  0  0  0  0  0  0  0  0  0  0
    2.8474   -3.4939   -4.2615 C   0  0  0  0  0  0  0  0  0  0  0  0
    2.7422   -3.3720   -5.6425 C   0  0  0  0  0  0  0  0  0  0  0  0
    3.3629   -4.5179   -6.8249 S   0  0  0  0  0  0  0  0  0  0  0  0
    3.7248   -6.0174   -5.8484 C   0  0  0  0  0  0  0  0  0  0  0  0
    2.4643   -6.7081   -5.3635 C   0  0  0  0  0  0  0  0  0  0  0  0
    2.1092   -2.2296   -6.1380 C   0  0  0  0  0  0  0  0  0  0  0  0
    1.5913   -1.2574   -5.3143 C   0  0  0  0  0  0  0  0  0  0  0  0
    1.9910   -2.0731   -7.4719 F   0  0  0  0  0  0  0  0  0  0  0  0
    0.2716   -0.7107   -1.9896 C   0  0  0  0  0  0  0  0  0  0  0  0
   -0.1498   -2.3222   -1.4645 S   0  0  0  0  0  0  0  0  0  0  0  0
    2.2660    1.5731   -4.1650 C   0  0  0  0  0  0  0  0  0  0  0  0
    2.3160    2.9329   -4.0925 C   0  0  0  0  0  0  0  0  0  0  0  0
    1.2163    3.5746   -2.8859 S   0  0  0  0  0  0  0  0  0  0  0  0
    3.1718    3.8090   -4.8218 C   0  0  0  0  0  0  0  0  0  0  0  0
    3.2934    5.1603   -4.6905 C   0  0  0  0  0  0  0  0  0  0  0  0
    4.2974    5.7231   -5.5180 C   0  0  0  0  0  0  0  0  0  0  0  0
    4.6730    7.0719   -5.6298 C   0  0  0  0  0  0  0  0  0  0  0  0
    4.0786    8.1104   -4.7801 C   0  0  0  0  0  0  0  0  0  0  0  0
    4.0176    7.9539   -3.3960 C   0  0  0  0  0  0  0  0  0  0  0  0
    3.4729    8.9397   -2.6011 C   0  0  0  0  0  0  0  0  0  0  0  0
    2.9761   10.1201   -3.1492 C   0  0  0  0  0  0  0  0  0  0  0  0
    2.3435   11.3400   -2.0333 S   0  0  0  0  0  0  0  0  0  0  0  0
    0.8115   11.9153   -2.8554 C   0  0  0  0  0  0  0  0  0  0  0  0
   -0.1619   10.7782   -3.0923 C   0  0  0  0  0  0  0  0  0  0  0  0
    3.0706   10.2752   -4.5285 C   0  0  0  0  0  0  0  0  0  0  0  0
    2.6450   11.4097   -5.1278 F   0  0  0  0  0  0  0  0  0  0  0  0
    3.5977    9.2900   -5.3383 C   0  0  0  0  0  0  0  0  0  0  0  0
    5.6624    7.3698   -6.5548 C   0  0  0  0  0  0  0  0  0  0  0  0
    6.2990    6.3857   -7.3523 C   0  0  0  0  0  0  0  0  0  0  0  0
    5.9221    5.0361   -7.2437 C   0  0  0  0  0  0  0  0  0  0  0  0
    6.5399    3.9958   -8.0743 C   0  0  0  0  0  0  0  0  0  0  0  0
    6.6158    4.1374   -9.4570 C   0  0  0  0  0  0  0  0  0  0  0  0
    7.1745    3.1516  -10.2471 C   0  0  0  0  0  0  0  0  0  0  0  0
    7.6782    1.9854   -9.6817 C   0  0  0  0  0  0  0  0  0  0  0  0
    8.4344    0.6660  -10.5705 S   0  0  0  0  0  0  0  0  0  0  0  0
    7.8607    0.9041  -12.2881 C   0  0  0  0  0  0  0  0  0  0  0  0
    6.3722    0.6533  -12.4357 C   0  0  0  0  0  0  0  0  0  0  0  0
    7.6079    1.8634   -8.2927 C   0  0  0  0  0  0  0  0  0  0  0  0
    7.0494    2.8358   -7.4946 C   0  0  0  0  0  0  0  0  0  0  0  0
    8.1055    0.7571   -7.7063 F   0  0  0  0  0  0  0  0  0  0  0  0
    4.9340    4.7406   -6.3177 C   0  0  0  0  0  0  0  0  0  0  0  0
    4.2845    3.1517   -6.0070 S   0  0  0  0  0  0  0  0  0  0  0  0
    7.3307    6.9411   -8.1477 C   0  0  0  0  0  0  0  0  0  0  0  0
    7.4777    8.2883   -7.9841 C   0  0  0  0  0  0  0  0  0  0  0  0
    6.3411    8.9544   -6.8332 S   0  0  0  0  0  0  0  0  0  0  0  0
    8.4177    9.1378   -8.6300 C   0  0  0  0  0  0  0  0  0  0  0  0
    9.5655    8.5384   -9.7844 S   0  0  0  0  0  0  0  0  0  0  0  0
   10.2511   10.1205  -10.0098 C   0  0  0  0  0  0  0  0  0  0  0  0
    9.5976   11.0587   -9.2382 C   0  0  0  0  0  0  0  0  0  0  0  0
    8.5545   10.5023   -8.4576 C   0  0  0  0  0  0  0  0  0  0  0  0
    7.7357   11.1310   -7.5674 O   0  0  0  0  0  0  0  0  0  0  0  0
    7.6370   12.5131   -7.6034 C   0  0  0  0  0  0  0  0  0  0  0  0
    9.2826   13.3153   -7.4550 S   0  0  0  0  0  0  0  0  0  0  0  0
    9.9075   12.7918   -9.3341 S   0  0  0  0  0  0  0  0  0  0  0  0
   11.3439   10.2960  -10.9150 C   0  0  0  0  0  0  0  0  0  0  0  0
   11.4626    9.3389  -12.3619 S   0  0  0  0  0  0  0  0  0  0  0  0
   12.9300   10.0998  -12.8033 C   0  0  0  0  0  0  0  0  0  0  0  0
   13.3193   11.0396  -11.8965 C   0  0  0  0  0  0  0  0  0  0  0  0
   12.4181   11.1566  -10.8021 C   0  0  0  0  0  0  0  0  0  0  0  0
   12.5658   11.9187   -9.6842 O   0  0  0  0  0  0  0  0  0  0  0  0
   13.4930   12.9505   -9.7056 C   0  0  0  0  0  0  0  0  0  0  0  0
   15.1782   12.3470  -10.1179 S   0  0  0  0  0  0  0  0  0  0  0  0
   14.7721   12.0238  -12.1036 S   0  0  0  0  0  0  0  0  0  0  0  0
   -8.8451  -11.6936   12.4236 H   0  0  0  0  0  0  0  0  0  0  0  0
   -8.8071   -9.0891   12.3796 H   0  0  0  0  0  0  0  0  0  0  0  0
  -10.0208   -7.4598   10.9377 H   0  0  0  0  0  0  0  0  0  0  0  0
  -10.8646   -5.5468   12.2334 H   0  0  0  0  0  0  0  0  0  0  0  0
   -7.7872   -1.8230   13.5377 H   0  0  0  0  0  0  0  0  0  0  0  0
   -8.4159   -1.8826   11.8705 H   0  0  0  0  0  0  0  0  0  0  0  0
  -10.4031   -0.5506   12.5747 H   0  0  0  0  0  0  0  0  0  0  0  0
   -8.9128    0.3255   12.9503 H   0  0  0  0  0  0  0  0  0  0  0  0
   -9.7993   -0.5078   14.2331 H   0  0  0  0  0  0  0  0  0  0  0  0
   -6.0845   -5.7788   11.1045 H   0  0  0  0  0  0  0  0  0  0  0  0
   -3.9408  -10.4169    7.7098 H   0  0  0  0  0  0  0  0  0  0  0  0
   -3.0623  -12.2062    6.2659 H   0  0  0  0  0  0  0  0  0  0  0  0
   -6.3059  -15.1593    4.0902 H   0  0  0  0  0  0  0  0  0  0  0  0
   -4.9207  -15.3505    2.9990 H   0  0  0  0  0  0  0  0  0  0  0  0
   -4.8776  -12.8618    2.6350 H   0  0  0  0  0  0  0  0  0  0  0  0
   -6.4262  -13.5609    2.1468 H   0  0  0  0  0  0  0  0  0  0  0  0
   -6.2928  -12.6899    3.6748 H   0  0  0  0  0  0  0  0  0  0  0  0
   -7.8317  -12.1927    7.4828 H   0  0  0  0  0  0  0  0  0  0  0  0
   -5.1770   -8.8622    6.2326 H   0  0  0  0  0  0  0  0  0  0  0  0
   -3.9042   -7.5383    4.7340 H   0  0  0  0  0  0  0  0  0  0  0  0
   -0.3595   -6.3116    2.2678 H   0  0  0  0  0  0  0  0  0  0  0  0
    0.4199   -8.5152    1.5183 H   0  0  0  0  0  0  0  0  0  0  0  0
   -2.7923  -12.2396    1.4235 H   0  0  0  0  0  0  0  0  0  0  0  0
   -1.2811  -13.1612    1.5070 H   0  0  0  0  0  0  0  0  0  0  0  0
   -2.2474  -12.9525    3.7854 H   0  0  0  0  0  0  0  0  0  0  0  0
   -2.2657  -11.1916    3.6419 H   0  0  0  0  0  0  0  0  0  0  0  0
   -0.7254  -12.0565    3.6872 H   0  0  0  0  0  0  0  0  0  0  0  0
   -4.3692   -7.8145    2.3780 H   0  0  0  0  0  0  0  0  0  0  0  0
   -2.2386   -0.9363    4.3815 H   0  0  0  0  0  0  0  0  0  0  0  0
   -2.9237    1.3332    5.0452 H   0  0  0  0  0  0  0  0  0  0  0  0
   -7.0071    4.0113    4.6450 H   0  0  0  0  0  0  0  0  0  0  0  0
   -7.5738    2.3374    4.5039 H   0  0  0  0  0  0  0  0  0  0  0  0
   -5.4001    3.6584    2.7813 H   0  0  0  0  0  0  0  0  0  0  0  0
   -5.9059    1.9679    2.6403 H   0  0  0  0  0  0  0  0  0  0  0  0
   -7.0372    3.2673    2.2459 H   0  0  0  0  0  0  0  0  0  0  0  0
   -6.3499   -2.1365    4.3558 H   0  0  0  0  0  0  0  0  0  0  0  0
   -2.8180   -1.0656    1.9826 H   0  0  0  0  0  0  0  0  0  0  0  0
   -1.6648    0.2687    0.5760 H   0  0  0  0  0  0  0  0  0  0  0  0
   -2.8312    1.7336   -1.0627 H   0  0  0  0  0  0  0  0  0  0  0  0
   -4.0931    3.3071    0.3467 H   0  0  0  0  0  0  0  0  0  0  0  0
   -3.0560    6.3630    4.0581 H   0  0  0  0  0  0  0  0  0  0  0  0
   -1.4962    6.1929    3.2324 H   0  0  0  0  0  0  0  0  0  0  0  0
   -1.6641    3.6847    3.5172 H   0  0  0  0  0  0  0  0  0  0  0  0
   -1.6885    4.5170    5.0759 H   0  0  0  0  0  0  0  0  0  0  0  0
   -3.1934    3.9057    4.3823 H   0  0  0  0  0  0  0  0  0  0  0  0
    0.7824    3.8216   -0.0998 H   0  0  0  0  0  0  0  0  0  0  0  0
    2.4334   -2.6477   -2.3556 H   0  0  0  0  0  0  0  0  0  0  0  0
    3.3480   -4.3424   -3.8250 H   0  0  0  0  0  0  0  0  0  0  0  0
    4.3962   -5.7504   -5.0334 H   0  0  0  0  0  0  0  0  0  0  0  0
    4.2680   -6.6503   -6.5502 H   0  0  0  0  0  0  0  0  0  0  0  0
    2.7248   -7.6137   -4.8192 H   0  0  0  0  0  0  0  0  0  0  0  0
    1.8371   -6.9791   -6.2094 H   0  0  0  0  0  0  0  0  0  0  0  0
    1.8895   -6.0603   -4.7050 H   0  0  0  0  0  0  0  0  0  0  0  0
    1.0893   -0.4094   -5.7534 H   0  0  0  0  0  0  0  0  0  0  0  0
    2.8887    1.0075   -4.8350 H   0  0  0  0  0  0  0  0  0  0  0  0
    2.6751    5.7358   -4.0247 H   0  0  0  0  0  0  0  0  0  0  0  0
    4.4166    7.0599   -2.9419 H   0  0  0  0  0  0  0  0  0  0  0  0
    3.4248    8.8145   -1.5305 H   0  0  0  0  0  0  0  0  0  0  0  0
    1.0748   12.4272   -3.7783 H   0  0  0  0  0  0  0  0  0  0  0  0
    0.4059   12.6406   -2.1502 H   0  0  0  0  0  0  0  0  0  0  0  0
   -0.3815   10.2629   -2.1595 H   0  0  0  0  0  0  0  0  0  0  0  0
    0.2483   10.0567   -3.7969 H   0  0  0  0  0  0  0  0  0  0  0  0
   -1.0906   11.1697   -3.5026 H   0  0  0  0  0  0  0  0  0  0  0  0
    3.6261    9.4547   -6.4039 H   0  0  0  0  0  0  0  0  0  0  0  0
    6.2124    5.0232   -9.9242 H   0  0  0  0  0  0  0  0  0  0  0  0
    7.2189    3.3032  -11.3134 H   0  0  0  0  0  0  0  0  0  0  0  0
    8.1525    1.8989  -12.6225 H   0  0  0  0  0  0  0  0  0  0  0  0
    8.4360    0.1682  -12.8498 H   0  0  0  0  0  0  0  0  0  0  0  0
    6.1273   -0.3540  -12.1075 H   0  0  0  0  0  0  0  0  0  0  0  0
    6.0803    0.7609  -13.4786 H   0  0  0  0  0  0  0  0  0  0  0  0
    5.7956    1.3568  -11.8386 H   0  0  0  0  0  0  0  0  0  0  0  0
    7.0314    2.6896   -6.4263 H   0  0  0  0  0  0  0  0  0  0  0  0
    7.9627    6.3650   -8.7997 H   0  0  0  0  0  0  0  0  0  0  0  0
    7.1777   12.8776   -8.5285 H   0  0  0  0  0  0  0  0  0  0  0  0
    7.0487   12.8055   -6.7345 H   0  0  0  0  0  0  0  0  0  0  0  0
   13.4326    9.8321  -13.7098 H   0  0  0  0  0  0  0  0  0  0  0  0
   13.5309   13.3545   -8.6947 H   0  0  0  0  0  0  0  0  0  0  0  0
   13.2339   13.7314  -10.4282 H   0  0  0  0  0  0  0  0  0  0  0  0
  1  2  2  0  0  0  0
  2  3  1  0  0  0  0
  3  4  2  0  0  0  0
  4  5  1  0  0  0  0
  5  6  2  0  0  0  0
  6  7  1  0  0  0  0
  7  8  2  0  0  0  0
  8  9  1  0  0  0  0
  9 10  1  0  0  0  0
 10 11  1  0  0  0  0
  8 12  1  0  0  0  0
 12 13  1  0  0  0  0
 12 14  2  0  0  0  0
  4 15  1  0  0  0  0
 15 16  2  0  0  0  0
 16 17  1  0  0  0  0
 17 18  1  0  0  0  0
 18 19  2  0  0  0  0
 19 20  1  0  0  0  0
 20 21  2  0  0  0  0
 21 22  1  0  0  0  0
 22 23  1  0  0  0  0
 23 24  1  0  0  0  0
 21 25  1  0  0  0  0
 25 26  2  0  0  0  0
 25 27  1  0  0  0  0
 17 28  2  0  0  0  0
 28 29  1  0  0  0  0
 16 30  1  0  0  0  0
 30 31  2  0  0  0  0
 31 32  1  0  0  0  0
 31 33  1  0  0  0  0
 33 34  2  0  0  0  0
 34 35  1  0  0  0  0
 35 36  2  0  0  0  0
 36 37  1  0  0  0  0
 37 38  2  0  0  0  0
 38 39  1  0  0  0  0
 39 40  2  0  0  0  0
 40 41  1  0  0  0  0
 41 42  1  0  0  0  0
 42 43  1  0  0  0  0
 40 44  1  0  0  0  0
 44 45  1  0  0  0  0
 44 46  2  0  0  0  0
 36 47  1  0  0  0  0
 47 48  2  0  0  0  0
 48 49  1  0  0  0  0
 49 50  1  0  0  0  0
 50 51  2  0  0  0  0
 51 52  1  0  0  0  0
 52 53  2  0  0  0  0
 53 54  1  0  0  0  0
 54 55  1  0  0  0  0
 55 56  1  0  0  0  0
 53 57  1  0  0  0  0
 57 58  2  0  0  0  0
 57 59  1  0  0  0  0
 49 60  2  0  0  0  0
 60 61  1  0  0  0  0
 48 62  1  0  0  0  0
 62 63  2  0  0  0  0
 63 64  1  0  0  0  0
 63 65  1  0  0  0  0
 65 66  2  0  0  0  0
 66 67  1  0  0  0  0
 67 68  2  0  0  0  0
 68 69  1  0  0  0  0
 69 70  2  0  0  0  0
 70 71  1  0  0  0  0
 71 72  2  0  0  0  0
 72 73  1  0  0  0  0
 73 74  1  0  0  0  0
 74 75  1  0  0  0  0
 72 76  1  0  0  0  0
 76 77  1  0  0  0  0
 76 78  2  0  0  0  0
 68 79  1  0  0  0  0
 79 80  2  0  0  0  0
 80 81  1  0  0  0  0
 81 82  1  0  0  0  0
 82 83  2  0  0  0  0
 83 84  1  0  0  0  0
 84 85  2  0  0  0  0
 85 86  1  0  0  0  0
 86 87  1  0  0  0  0
 87 88  1  0  0  0  0
 85 89  1  0  0  0  0
 89 90  2  0  0  0  0
 89 91  1  0  0  0  0
 81 92  2  0  0  0  0
 92 93  1  0  0  0  0
 80 94  1  0  0  0  0
 94 95  2  0  0  0  0
 95 96  1  0  0  0  0
 95 97  1  0  0  0  0
 97 98  2  0  0  0  0
 98 99  1  0  0  0  0
 99100  2  0  0  0  0
100101  1  0  0  0  0
101102  2  0  0  0  0
102103  1  0  0  0  0
103104  2  0  0  0  0
104105  1  0  0  0  0
105106  1  0  0  0  0
106107  1  0  0  0  0
104108  1  0  0  0  0
108109  1  0  0  0  0
108110  2  0  0  0  0
100111  1  0  0  0  0
111112  2  0  0  0  0
112113  1  0  0  0  0
113114  1  0  0  0  0
114115  2  0  0  0  0
115116  1  0  0  0  0
116117  2  0  0  0  0
117118  1  0  0  0  0
118119  1  0  0  0  0
119120  1  0  0  0  0
117121  1  0  0  0  0
121122  2  0  0  0  0
121123  1  0  0  0  0
113124  2  0  0  0  0
124125  1  0  0  0  0
112126  1  0  0  0  0
126127  2  0  0  0  0
127128  1  0  0  0  0
127129  1  0  0  0  0
129130  1  0  0  0  0
130131  1  0  0  0  0
131132  2  0  0  0  0
132133  1  0  0  0  0
133134  1  0  0  0  0
134135  1  0  0  0  0
135136  1  0  0  0  0
136137  1  0  0  0  0
131138  1  0  0  0  0
138139  1  0  0  0  0
139140  1  0  0  0  0
140141  2  0  0  0  0
141142  1  0  0  0  0
142143  1  0  0  0  0
143144  1  0  0  0  0
144145  1  0  0  0  0
145146  1  0  0  0  0
 29  1  1  0  0  0  0
 61 33  1  0  0  0  0
 93 65  1  0  0  0  0
125 97  1  0  0  0  0
133129  2  0  0  0  0
142138  2  0  0  0  0
 28  3  1  0  0  0  0
 60 35  1  0  0  0  0
 92 67  1  0  0  0  0
124 99  1  0  0  0  0
137132  1  0  0  0  0
146141  1  0  0  0  0
 14  5  1  0  0  0  0
 32 15  1  0  0  0  0
 46 37  1  0  0  0  0
 64 47  1  0  0  0  0
 78 69  1  0  0  0  0
 96 79  1  0  0  0  0
110101  1  0  0  0  0
128111  1  0  0  0  0
 26 18  1  0  0  0  0
 58 50  1  0  0  0  0
 90 82  1  0  0  0  0
122114  1  0  0  0  0
  1147  1  0  0  0  0
  2148  1  0  0  0  0
  6149  1  0  0  0  0
  7150  1  0  0  0  0
 10151  1  0  0  0  0
 10152  1  0  0  0  0
 11153  1  0  0  0  0
 11154  1  0  0  0  0
 11155  1  0  0  0  0
 14156  1  0  0  0  0
 19157  1  0  0  0  0
 20158  1  0  0  0  0
 23159  1  0  0  0  0
 23160  1  0  0  0  0
 24161  1  0  0  0  0
 24162  1  0  0  0  0
 24163  1  0  0  0  0
 26164  1  0  0  0  0
 30165  1  0  0  0  0
 34166  1  0  0  0  0
 38167  1  0  0  0  0
 39168  1  0  0  0  0
 42169  1  0  0  0  0
 42170  1  0  0  0  0
 43171  1  0  0  0  0
 43172  1  0  0  0  0
 43173  1  0  0  0  0
 46174  1  0  0  0  0
 51175  1  0  0  0  0
 52176  1  0  0  0  0
 55177  1  0  0  0  0
 55178  1  0  0  0  0
 56179  1  0  0  0  0
 56180  1  0  0  0  0
 56181  1  0  0  0  0
 58182  1  0  0  0  0
 62183  1  0  0  0  0
 66184  1  0  0  0  0
 70185  1  0  0  0  0
 71186  1  0  0  0  0
 74187  1  0  0  0  0
 74188  1  0  0  0  0
 75189  1  0  0  0  0
 75190  1  0  0  0  0
 75191  1  0  0  0  0
 78192  1  0  0  0  0
 83193  1  0  0  0  0
 84194  1  0  0  0  0
 87195  1  0  0  0  0
 87196  1  0  0  0  0
 88197  1  0  0  0  0
 88198  1  0  0  0  0
 88199  1  0  0  0  0
 90200  1  0  0  0  0
 94201  1  0  0  0  0
 98202  1  0  0  0  0
102203  1  0  0  0  0
103204  1  0  0  0  0
106205  1  0  0  0  0
106206  1  0  0  0  0
107207  1  0  0  0  0
107208  1  0  0  0  0
107209  1  0  0  0  0
110210  1  0  0  0  0
115211  1  0  0  0  0
116212  1  0  0  0  0
119213  1  0  0  0  0
119214  1  0  0  0  0
120215  1  0  0  0  0
120216  1  0  0  0  0
120217  1  0  0  0  0
122218  1  0  0  0  0
126219  1  0  0  0  0
135220  1  0  0  0  0
135221  1  0  0  0  0
140222  1  0  0  0  0
144223  1  0  0  0  0
144224  1  0  0  0  0
M  END
