284

C         -3.07430       -3.79930       10.82780
C         -3.04400       -2.58410       10.24590
C         -3.23040       -2.64070        8.83260
C         -3.27530       -1.57930        7.91840
C         -3.05200       -0.18220        8.31400
C         -3.77160        0.44160        9.33110
C         -3.48740        1.73930        9.69200
C         -2.48250        2.47930        9.06060
S         -2.23750        4.10300        9.68780
C         -0.73260        4.76990        8.87890
C         -0.48120        6.16160        9.42630
C         -1.80290        1.85570        8.01990
F         -0.83470        2.49100        7.31520
C         -2.06940        0.55140        7.65900
C         -3.46480       -1.91910        6.58800
C         -3.55720       -3.25170        6.11990
C         -3.52290       -4.31330        7.03740
C         -3.68050       -5.70530        6.60110
C         -4.73500       -6.07210        5.76530
C         -4.90980       -7.38680        5.39110
C         -4.03570       -8.38400        5.81870
S         -4.33550      -10.03250        5.25060
C         -4.02730      -11.06260        6.73300
C         -4.90640      -10.65560        7.89830
C         -2.96710       -7.99770        6.62200
C         -2.79450       -6.68950        7.02610
F         -2.04990       -8.90040        7.03270
C         -3.36470       -3.97450        8.37530
S         -3.31170       -5.09880        9.70970
C         -3.62720       -3.30680        4.70150
C         -3.66180       -2.08000        4.11140
S         -3.62120       -0.77630        5.28370
C         -3.66910       -1.75040        2.72390
C         -3.89080       -0.52340        2.17550
C         -3.78300       -0.49350        0.76370
C         -3.94240        0.61260       -0.09230
C         -4.38480        1.92360        0.39380
C         -3.81130        3.10500       -0.07670
C         -4.30910        4.32940        0.30350
C         -5.38990        4.44900        1.17940
S         -5.95270        6.09720        1.45110
C         -6.92270        6.09590        2.99960
C         -6.06480        5.78710        4.20860
C         -5.93900        3.26360        1.65790
F         -7.00170        3.26530        2.49640
C         -5.45460        2.02770        1.27820
C         -3.69590        0.38510       -1.44080
C         -3.36960       -0.89360       -1.95430
C         -3.22050       -2.00120       -1.10000
C         -2.77750       -3.28470       -1.65820
C         -3.38350       -3.81700       -2.79790
C         -2.82810       -4.89410       -3.45150
C         -1.66660       -5.50630       -2.98140
S         -0.98640       -6.79130       -3.98700
C          0.82460       -6.66710       -3.74280
C          1.36160       -5.26680       -3.95540
C         -1.15360       -5.05150       -1.77030
C         -1.67410       -3.94550       -1.12700
F         -0.09550       -5.66710       -1.19170
C         -3.41910       -1.76470        0.24930
S         -3.29400       -2.95900        1.51530
C         -3.12300       -0.85500       -3.34660
C         -3.23860        0.38640       -3.89870
S         -3.72180        1.58450       -2.71820
C         -2.70630        0.71890       -5.18330
C         -2.06380        1.86590       -5.54740
C         -1.10260        1.66870       -6.57660
C         -0.02880        2.51500       -6.92110
C          0.06080        3.89480       -6.42280
C          0.31140        4.94040       -7.30930
C          0.35150        6.24750       -6.86570
C          0.15820        6.55770       -5.52410
S          0.12300        8.25910       -5.01240
C          1.47770        8.29250       -3.77720
C          2.83210        8.36270       -4.45410
C         -0.06960        5.50340       -4.64680
F         -0.25460        5.73750       -3.32630
C         -0.11160        4.19290       -5.07430
C          1.00620        1.93350       -7.63900
C          0.95300        0.60920       -8.13840
C         -0.16630       -0.20230       -7.89500
C         -0.14770       -1.62740       -8.26150
C         -0.23430       -2.60620       -7.27510
C         -0.18710       -3.94910       -7.59100
C         -0.04280       -4.36760       -8.90880
S          0.06840       -6.04470       -9.43360
C         -0.43650       -7.01290       -7.96940
C         -1.91950       -6.89630       -7.67710
C          0.06400       -3.37440       -9.88590
C          0.01750       -2.03090       -9.58410
F          0.22050       -3.73870      -11.17390
C         -1.13510        0.33830       -7.06840
S         -2.38280       -0.60070       -6.29340
C          2.23450        0.09940       -8.45760
C          3.25790        0.91720       -8.06400
S          2.65930        2.52830       -7.67000
C          4.43940        0.38610       -7.45390
C          5.02260        0.86620       -6.31410
C          5.42570       -0.15720       -5.41240
C          5.70580        0.01060       -4.04480
C          6.10430        1.31090       -3.49930
C          7.13000        2.03360       -4.10860
C          7.58150        3.21360       -3.55820
C          7.01980        3.73310       -2.39250
S          7.65420        5.28000       -1.81630
C          7.62070        5.13530        0.00800
C          8.42620        3.94930        0.49890
C          5.96250        3.02820       -1.82520
F          5.32690        3.49140       -0.72590
C          5.51520        1.83570       -2.35380
C          5.52030       -1.10830       -3.24280
C          5.19210       -2.38570       -3.75440
C          5.08190       -2.58650       -5.14440
C          4.69540       -3.90830       -5.65700
C          3.58540       -4.07360       -6.48530
C          3.18430       -5.33030       -6.87710
C          3.84580       -6.48240       -6.44770
S          3.08440       -8.00310       -6.92850
C          4.35380       -9.31860       -6.82130
C          4.29750      -10.07670       -5.50940
C          4.96330       -6.30130       -5.63970
C          5.38810       -5.04490       -5.25410
F          5.67960       -7.35500       -5.17980
C          5.16570       -1.45170       -5.93060
S          4.70110       -1.35670       -7.61550
C          4.79770       -3.28650       -2.73150
C          4.79020       -2.74530       -1.48150
S          5.44750       -1.11230       -1.50150
C          4.14600       -3.23170       -0.28290
C          3.61890       -4.53630       -0.16780
O          3.94320       -5.43960       -1.13240
C          3.56170       -6.79220       -0.96190
C          4.13670       -7.58560       -2.12500
C          2.78930       -4.82420        0.90580
C          2.46340       -3.88000        1.87600
C          3.11340       -2.62860        1.84560
C          3.92090       -2.33280        0.76380
O          2.89740       -1.79950        2.90280
C          3.43440       -0.49250        2.90530
C          4.90280       -0.45160        3.31860
C          1.47650       -4.21680        2.89380
C          0.49680       -3.40390        3.32540
C          0.21570       -2.10850        2.77980
C         -0.47950       -1.15590        3.42850
C         -0.71990        0.15790        2.92610
C         -1.36350        1.17710        3.56410
C         -1.42570        2.38430        2.82250
C         -1.99600        3.60780        3.21340
C         -2.78210        3.73570        4.44430
C         -3.73800        2.77700        4.78360
C         -4.52710        2.92200        5.90120
C         -4.42090        4.04020        6.72970
S         -5.53560        4.09880        8.09630
C         -5.85220        5.88000        8.41310
C         -5.10760        6.39970        9.62590
C         -3.44630        4.97590        6.39870
F         -3.24710        6.07800        7.15830
C         -2.64100        4.83460        5.28550
C         -1.81680        4.67720        2.34340
C         -1.10840        4.57380        1.12290
C         -0.53960        3.34950        0.73410
C          0.28930        3.24570       -0.47290
C          0.14080        2.20790       -1.39160
C          0.95560        2.13300       -2.50200
C          1.94900        3.08230       -2.74550
S          2.92700        2.86890       -4.20550
C          3.27340        4.57140       -4.79970
C          4.71130        4.99660       -4.58920
C          2.10250        4.09740       -1.80760
C          1.29010        4.18730       -0.69650
F          3.05750        5.04020       -1.95400
C         -0.74520        2.27260        1.58430
S         -0.13810        0.65300        1.34370
C         -1.13520        5.80000        0.39230
C         -1.80950        6.77730        1.03040
S         -2.45480        6.28670        2.55730
H         -2.96470       -4.03630       11.86810
H         -2.89090       -1.66600       10.78330
H         -4.56470       -0.09200        9.83200
H         -4.04310        2.21780       10.48320
H         -0.90120        4.80200        7.80470
H          0.09340        4.09670        9.10500
H         -1.31050        6.82010        9.17790
H          0.42820        6.56740        8.98870
H         -0.36900        6.13610       10.50800
H         -1.47320        0.11000        6.87530
H         -5.44130       -5.32410        5.43860
H         -5.73730       -7.66990        4.75930
H         -4.26790      -12.06920        6.39080
H         -2.96980      -11.01670        6.98360
H         -4.75380      -11.34180        8.72880
H         -4.66400       -9.64930        8.23540
H         -5.95590      -10.68070        7.61200
H         -1.94620       -6.44780        7.64710
H         -3.62940       -4.22280        4.13770
H         -4.11060        0.34150        2.77280
H         -2.95840        3.06890       -0.73500
H         -3.87340        5.23410       -0.09070
H         -7.75520        5.40380        2.89880
H         -7.31140        7.11390        3.04360
H         -6.66690        5.86530        5.11180
H         -5.66440        4.77780        4.15230
H         -5.23160        6.48420        4.27280
H         -5.96580        1.14950        1.64170
H         -4.28750       -3.36850       -3.18030
H         -3.27260       -5.27160       -4.35940
H          1.22000       -7.35510       -4.49160
H          1.06230       -7.04630       -2.75140
H          2.44590       -5.27630       -3.87210
H          0.97650       -4.57370       -3.21110
H          1.10170       -4.89300       -4.94280
H         -1.19050       -3.59720       -0.22730
H         -2.79000       -1.70540       -3.91280
H         -2.20380        2.78890       -5.01640
H          0.45930        4.72490       -8.35670
H          0.52670        7.05500       -7.55920
H          1.38630        7.41680       -3.13940
H          1.28590        9.18360       -3.18090
H          2.95630        7.53420       -5.14900
H          2.93110        9.29320       -5.00830
H          3.62200        8.31120       -3.70750
H         -0.25610        3.41630       -4.34090
H         -0.31280       -2.31770       -6.23840
H         -0.25980       -4.67210       -6.79530
H          0.17930       -6.72060       -7.12050
H         -0.17120       -8.03400       -8.24220
H         -2.16360       -7.48820       -6.79740
H         -2.20170       -5.86290       -7.48730
H         -2.50040       -7.26080       -8.52100
H          0.09890       -1.30730      -10.38030
H          2.38700       -0.92260       -8.75500
H          4.97730        1.90180       -6.02760
H          7.59330        1.64690       -5.00390
H          8.38760        3.76070       -4.02200
H          6.58600        5.09320        0.34080
H          8.06260        6.07520        0.33930
H          9.44770        4.00160        0.12790
H          7.98380        3.01310        0.16330
H          8.44870        3.94730        1.58690
H          4.67650        1.34940       -1.88260
H          3.01170       -3.21710       -6.80130
H          2.33080       -5.44730       -7.52560
H          5.32540       -8.86380       -6.99510
H          4.11560       -9.97550       -7.65870
H          4.54300       -9.42760       -4.67340
H          5.01460      -10.89460       -5.53180
H          3.30280      -10.48910       -5.35270
H          6.26250       -4.96780       -4.62640
H          4.44300       -4.27790       -2.93240
H          3.95650       -7.17440       -0.01090
H          2.46720       -6.87650       -0.94680
H          3.89270       -8.63780       -2.00790
H          3.72230       -7.22880       -3.06430
H          5.21710       -7.47230       -2.15750
H          2.31670       -5.79070        0.97860
H          4.37460       -1.35810        0.68170
H          2.82950        0.04200        3.64430
H          3.28630       -0.01050        1.93100
H          5.23950        0.58060        3.36010
H          5.01980       -0.90220        4.30100
H          5.52560       -0.99710        2.61440
H          1.54860       -5.21600        3.30410
H         -0.14020       -3.73160        4.13780
H          0.60280       -1.89050        1.79250
H         -0.85810       -1.35060        4.42380
H         -1.75370        1.08520        4.56020
H         -3.89030        1.92710        4.13920
H         -5.26700        2.17560        6.14510
H         -6.93050        5.93170        8.56890
H         -5.59830        6.42840        7.50950
H         -5.37300        5.82370       10.50900
H         -5.36810        7.44260        9.79460
H         -4.03430        6.32720        9.47950
H         -1.89330        5.58910        5.09710
H         -0.63260        1.46790       -1.24920
H          0.83300        1.33090       -3.21540
H          2.57780        5.23580       -4.29670
H          3.02680        4.54050       -5.86170
H          4.88520        5.95330       -5.07670
H          4.93240        5.10630       -3.53220
H          5.39540        4.26530       -5.01340
H          1.47000        4.98360        0.00870
H         -0.69820        5.91930       -0.58230
H         -1.98400        7.78320        0.70200
