244

C         -5.17490       10.15510       16.51140
C         -4.34820       10.69530       15.59290
C         -4.50790       10.11850       14.29940
C         -3.80290       10.41140       13.12230
C         -2.74410       11.40900       13.08840
S         -1.37690       11.31550       14.15910
C         -0.64000       12.72150       13.47000
C          0.69310       13.20040       13.92850
C          1.81720       12.49580       13.16500
C         -1.41770       13.21950       12.46810
Cl        -1.01740       14.61250       11.55010
C         -2.61160       12.48020       12.24990
Cl        -3.78940       12.95360       11.09870
C         -4.13470        9.67980       11.98890
C         -5.14150        8.68310       11.98190
C         -5.86710        8.40990       13.15290
C         -6.90870        7.39580       13.18040
S         -6.59590        5.76330       12.66650
C         -8.21160        5.25650       13.02110
C         -8.63500        3.84110       12.83840
C         -8.28680        3.00300       14.07080
C         -8.93650        6.30000       13.51370
C         -8.20390        7.51430       13.60230
Cl        -8.92450        8.98480       14.10630
Cl       -10.58380        6.18440       13.97910
C         -5.52470        9.13360       14.28960
S         -6.21130        8.92720       15.87540
C         -5.26460        8.06870       10.71100
C         -4.38060        8.54460        9.78940
S         -3.35200        9.80310       10.44010
C         -4.21050        8.10940        8.44250
C         -3.37710        8.62830        7.49720
C         -3.39620        7.91480        6.27400
C         -2.60520        8.13110        5.13250
C         -1.58260        9.16320        5.10010
S         -1.51230       10.32000        3.80470
C         -0.11360       11.09290        4.46650
C          0.54660       12.22340        3.75790
C          1.48020       11.70490        2.66130
C          0.27150       10.47200        5.61730
Cl         1.62700       10.94830        6.55550
C         -0.56080        9.38030        5.98300
Cl        -0.23740        8.39430        7.35080
C         -2.81570        7.28660        4.05100
C         -3.75910        6.23150        4.07290
C         -4.53450        5.99740        5.22280
C         -5.45940        4.87740        5.27870
S         -4.92440        3.26950        4.88070
C         -6.48890        2.58920        5.16950
C         -6.74600        1.14260        4.92910
C         -6.77090        0.83340        3.43030
C         -7.36200        3.56200        5.55350
C         -6.78190        4.85860        5.62360
Cl        -7.70000        6.25170        6.01330
Cl        -9.01380        3.27810        5.92280
C         -4.33140        6.84860        6.30030
S         -5.10580        6.72470        7.85260
C         -3.75670        5.50010        2.86240
C         -2.82550        5.93190        1.96500
S         -1.92580        7.31390        2.55300
C         -2.51210        5.32060        0.71710
C         -1.48850        5.60600       -0.13600
C         -1.39070        4.70260       -1.22400
C         -0.42420        4.67980       -2.24830
C          0.53120        5.76100       -2.39850
S          2.23130        5.45500       -2.59820
C          2.60340        7.14150       -2.70010
C          3.99730        7.60470       -2.94080
C          4.38540        7.42280       -4.41000
C          1.46580        7.88530       -2.59600
Cl         1.43120        9.60000       -2.66070
C          0.28980        7.10850       -2.42020
Cl        -1.27240        7.81590       -2.34150
C         -0.42050        3.56640       -3.08030
C         -1.38910        2.53930       -2.97960
C         -2.43080        2.62260       -2.03820
C         -3.46110        1.60210       -1.99280
S         -3.92020        0.82910       -0.50340
C         -5.03860       -0.22230       -1.30030
C         -5.87180       -1.19180       -0.53720
C         -7.23370       -0.58360       -0.19380
C         -5.06130        0.03520       -2.63890
C         -4.16870        1.06520       -3.03580
Cl        -4.08200        1.62020       -4.65870
Cl        -6.05370       -0.80610       -3.75630
C         -2.37760        3.68810       -1.15200
S         -3.44550        3.93030        0.19790
C         -1.11070        1.46330       -3.84970
C         -0.00390        1.65660       -4.62380
S          0.75240        3.20350       -4.31950
C          0.53410        0.66240       -5.49630
C         -0.14900       -0.43880       -5.92300
C          0.66930       -1.40080       -6.55580
C          0.31180       -2.70700       -6.93090
C         -1.02450       -3.21080       -6.65820
S         -1.99610       -3.94120       -7.90010
C         -3.33190       -4.17970       -6.82590
C         -4.57820       -4.85580       -7.27950
C         -4.44300       -6.37650       -7.16810
C         -3.02090       -3.73220       -5.57650
Cl        -4.09320       -3.79620       -4.23880
C         -1.71540       -3.18230       -5.47720
Cl        -1.07150       -2.63020       -3.98180
C          1.30740       -3.48910       -7.49550
C          2.63310       -3.02720       -7.68070
C          2.99930       -1.73450       -7.26540
C          4.37660       -1.27870       -7.35090
S          5.67350       -2.21910       -6.67010
C          6.86460       -1.04080       -7.10550
C          8.30820       -1.26310       -6.81540
C          8.92390       -2.26310       -7.79620
C          6.27770        0.00640       -7.74970
C          4.86780       -0.11970       -7.88250
Cl         3.91480        1.04450       -8.70290
Cl         7.13630        1.36610       -8.34900
C          2.00390       -0.94840       -6.69840
S          2.21630        0.62220       -5.97410
C          3.46900       -4.03040       -8.23050
C          2.85310       -5.23140       -8.40560
S          1.15620       -5.15850       -7.94960
C          3.43770       -6.49690       -8.78270
C          4.67510       -6.59410       -9.45370
O          5.25800       -5.43330       -9.85330
C          6.48700       -5.46530      -10.55140
C          6.85600       -4.02490      -10.87300
C          5.21960       -7.84980       -9.65680
C          4.61190       -9.02580       -9.20670
C          3.33890       -8.92850       -8.59780
C          2.78950       -7.67400       -8.40790
O          2.73010      -10.08250       -8.22050
C          1.41310      -10.06370       -7.70510
C          0.35600       -9.83200       -8.78060
C          5.35200      -10.26070       -9.34190
C          5.17830      -11.35140       -8.57380
C          5.96230      -12.54620       -8.64420
C          6.03140      -13.45480       -7.64750
C          5.46970      -13.25610       -6.34190
C          5.30420      -12.08620       -5.66030
C          4.68090      -12.24020       -4.39670
C          4.34810      -11.23960       -3.47110
C          4.65410       -9.83700       -3.71590
S          4.04550       -8.97230       -5.09900
C          4.81340       -7.49810       -4.61420
C          4.64510       -6.23080       -5.37670
C          3.40680       -5.46810       -4.90020
C          5.49510       -7.68290       -3.44890
Cl         6.38850       -6.44820       -2.66110
C          5.41010       -9.00540       -2.93870
Cl         6.24530       -9.50380       -1.52790
C          3.72960      -11.64870       -2.29580
C          3.44750      -13.00490       -2.00600
C          3.77990      -14.00420       -2.93370
C          3.46880      -15.40240       -2.67880
S          4.69700      -16.63050       -2.72240
C          3.56600      -17.88370       -2.34190
C          4.00870      -19.29360       -2.16050
C          4.48530      -19.53790       -0.72660
C          2.31520      -17.36410       -2.19000
C          2.25570      -15.95820       -2.38410
Cl         0.78450      -15.07520       -2.32300
Cl         0.92810      -18.30170       -1.81150
C          4.40010      -13.59720       -4.10720
S          4.90110      -14.63470       -5.41210
C          2.83710      -13.15090       -0.72570
C          2.63250      -11.97090       -0.10640
S          3.17810      -10.60510       -1.01620
H         -5.25590       10.40430       17.55140
H         -3.64290       11.47580       15.81090
H          0.75600       14.27710       13.75890
H          0.80110       13.00600       14.99680
H          1.72890       12.69170       12.09950
H          2.78370       12.85610       13.50700
H          1.76730       11.42150       13.32600
H         -8.13640        3.42390       11.96180
H         -9.71370        3.81740       12.67310
H         -8.78720        3.40070       14.95000
H         -8.60420        1.97410       13.92430
H         -7.21360        3.01670       14.24530
H         -5.97870        7.29880       10.48140
H         -2.77290        9.49910        7.67520
H          1.11820       12.80650        4.48210
H         -0.21430       12.86620        3.31170
H          0.92040       11.12090        1.93460
H          1.95420       12.53830        2.14990
H          2.25400       11.07420        3.09210
H         -7.70520        0.88020        5.37790
H         -5.96310        0.54930        5.40590
H         -6.96480       -0.22390        3.27130
H         -7.55340        1.40880        2.94160
H         -5.81530        1.08660        2.97600
H         -4.40690        4.66930        2.65810
H         -0.79780        6.41030        0.04100
H          4.06770        8.65890       -2.66760
H          4.68380        7.03350       -2.31300
H          4.31680        6.37450       -4.69050
H          5.40470        7.76280       -4.57190
H          3.72060        7.99770       -5.04980
H         -5.35190       -1.46910        0.38080
H         -6.01550       -2.08810       -1.14430
H         -7.77130       -0.32830       -1.10320
H         -7.10420        0.31800        0.39960
H         -7.82810       -1.29440        0.37370
H         -1.66880        0.54690       -3.84880
H         -1.20710       -0.55830       -5.79000
H         -5.40840       -4.51540       -6.65780
H         -4.78230       -4.58410       -8.31640
H         -4.25460       -6.66320       -6.13650
H         -3.61730       -6.72680       -7.78300
H         -5.35780       -6.85810       -7.50240
H          8.41910       -1.64230       -5.79750
H          8.82790       -0.30660       -6.89010
H          8.41630       -3.22250       -7.72350
H          8.83660       -1.89460       -8.81560
H          9.97640       -2.40870       -7.56880
H          4.50460       -3.87460       -8.45690
H          7.26490       -5.92680       -9.92700
H          6.38440       -6.04790      -11.47680
H          6.08190       -3.57300      -11.48710
H          6.94740       -3.45040       -9.95520
H          7.80070       -3.99440      -11.40790
H          6.17620       -7.94440      -10.14670
H          1.83940       -7.56940       -7.90970
H          1.32450       -9.32900       -6.89580
H          1.28760      -11.06100       -7.27380
H          0.46630       -8.85150       -9.23650
H         -0.63390       -9.90530       -8.33910
H          0.45300      -10.58580       -9.55790
H          6.17170      -10.23830      -10.05090
H          4.40030      -11.34180       -7.82780
H          6.49600      -12.74060       -9.56550
H          6.53140      -14.39960       -7.81110
H          5.66210      -11.14040       -6.02220
H          5.52910       -5.60900       -5.22230
H          4.55370       -6.45140       -6.44090
H          3.33690       -4.51480       -5.41660
H          2.50590       -6.04380       -5.09880
H          3.46970       -5.27870       -3.83170
H          3.17050      -19.95590       -2.38450
H          4.82200      -19.50890       -2.85540
H          4.81070      -20.56830       -0.61170
H          5.31760      -18.87970       -0.48870
H          3.67850      -19.34680       -0.02360
H          2.57620      -14.10120       -0.29820
H          2.19030      -11.80010        0.85570
