266

C         -2.70440        5.78320        6.72570
C         -3.44910        6.13700        5.65880
C         -3.79340        5.02980        4.82650
C         -4.49970        5.04330        3.61380
C         -5.06050        6.28200        3.05880
C         -4.80730        6.65860        1.74080
C         -5.33140        7.82820        1.23360
C         -6.13980        8.65750        2.00770
S         -6.80160       10.10620        1.23540
C         -6.63840       11.39840        2.52330
C         -5.19930       11.58020        2.96210
C         -6.41210        8.25120        3.31030
F         -7.22460        8.97970        4.10940
C         -5.87340        7.09660        3.84050
C         -4.62890        3.82890        2.95450
C         -4.10710        2.61760        3.47080
C         -3.37710        2.60520        4.67050
C         -2.75550        1.36010        5.14130
C         -1.95920        0.61720        4.27200
C         -1.41400       -0.59070        4.65600
C         -1.65590       -1.10630        5.92410
S         -1.05460       -2.67110        6.48940
C         -0.88350       -3.63710        4.94200
C          0.52510       -3.63860        4.38420
C         -2.41030       -0.32840        6.80170
C         -2.95600        0.88240        6.43280
F         -2.63700       -0.78280        8.05230
C         -3.25010        3.81980        5.32620
S         -2.35960        4.08980        6.79970
C         -4.40840        1.51660        2.63440
C         -5.08580        1.85800        1.50110
S         -5.43610        3.56990        1.42990
C         -5.35510        0.97430        0.41010
C         -5.21630       -0.38220        0.42940
C         -5.26350       -0.97940       -0.85470
C         -4.90030       -2.29900       -1.17800
C         -4.59280       -3.22930       -0.08080
C         -5.54440       -3.49420        0.89990
C         -5.23910       -4.26370        2.00570
C         -3.95770       -4.77260        2.18420
S         -3.42420       -5.72430        3.57090
C         -4.69620       -5.41270        4.84450
C         -4.66590       -3.99040        5.37160
C         -3.02240       -4.52200        1.17920
F         -1.76580       -4.99620        1.32280
C         -3.32060       -3.77720        0.05950
C         -4.71760       -2.58050       -2.52040
C         -4.95310       -1.62380       -3.54110
C         -5.33770       -0.31320       -3.21870
C         -5.37590        0.75030       -4.23240
C         -4.27110        0.96900       -5.05590
C         -4.27860        1.98220       -5.98830
C         -5.37370        2.83430       -6.12400
S         -5.21890        4.13980       -7.30810
C         -6.89160        4.31750       -8.02650
C         -7.37890        3.02810       -8.65590
C         -6.45320        2.62830       -5.27080
C         -6.46820        1.60060       -4.34750
F         -7.53690        3.43310       -5.31790
C         -5.47860       -0.01880       -1.87130
S         -5.67570        1.58180       -1.20160
C         -4.55020       -2.10140       -4.81420
C         -3.92710       -3.31220       -4.78230
S         -4.01260       -4.03700       -3.17990
C         -2.91830       -3.77920       -5.71310
C         -2.22010       -2.78340       -6.40180
C         -0.94670       -2.99210       -6.89330
C         -0.37780       -4.27210       -6.80470
C         -1.14600       -5.31290       -6.27550
C         -2.37600       -5.06620       -5.69970
N          0.95450       -4.47450       -7.16850
C          1.81500       -5.19530       -6.32830
C          2.88740       -5.89810       -6.87630
C          3.76260       -6.58360       -6.05650
C          3.58400       -6.58510       -4.68270
C          2.51730       -5.89380       -4.13400
C          1.63730       -5.20400       -4.94540
C          1.48830       -3.71380       -8.21840
C          0.75400       -3.55060       -9.39120
C          1.24860       -2.77110      -10.41850
C          2.48040       -2.15050      -10.29540
C          3.21820       -2.31930       -9.13510
C          2.73170       -3.09380       -8.10090
C         -0.13810       -1.76790       -7.06550
C          0.79370       -1.56500       -6.05900
C          1.38550       -0.33250       -5.83540
C          1.10860        0.72660       -6.71310
C          0.24080        0.49160       -7.78260
C         -0.40520       -0.72010       -7.93770
N          1.67120        1.98530       -6.51530
C          0.91950        3.13970       -6.78480
C          1.52980        4.25500       -7.35450
C          0.78930        5.39170       -7.61750
C         -0.56390        5.43030       -7.32410
C         -1.17500        4.32510       -6.75460
C         -0.44030        3.18720       -6.48100
C          2.95630        2.09760       -5.97380
C          3.95100        1.18800       -6.33140
C          5.20410        1.26810       -5.75650
C          5.48910        2.25680       -4.82920
C          4.51040        3.17570       -4.48770
C          3.25210        3.10090       -5.05200
C          2.10430       -0.22490       -4.57180
C          1.80070        0.56210       -3.51060
C          2.42040        0.14520       -2.29920
C          2.14510        0.59590       -1.00090
C          1.24020        1.72240       -0.73470
C          1.44940        2.97840       -1.29930
C          0.64180        4.04390       -0.95430
C         -0.41120        3.88820       -0.05780
S         -1.37970        5.30050        0.40000
C         -1.34860        5.18710        2.22920
C          0.06130        5.19680        2.78300
C         -0.65690        2.61110        0.43320
F         -1.71490        2.37890        1.24100
C          0.16060        1.54490        0.12560
C          2.71330       -0.12060        0.04270
C          3.55130       -1.24470       -0.15390
C          3.81550       -1.70790       -1.45350
C          4.55160       -2.95390       -1.69360
C          5.55350       -3.03190       -2.65520
C          6.22910       -4.21370       -2.89340
C          5.92960       -5.36260       -2.17190
S          6.69020       -6.93930       -2.37140
C          8.11170       -6.62490       -3.46900
C          9.23900       -5.90190       -2.75630
C          4.91100       -5.27460       -1.22140
C          4.22530       -4.10750       -0.98020
F          4.58150       -6.37450       -0.51250
C          3.24480       -0.99020       -2.49320
S          3.25870       -1.47730       -4.16550
C          3.97700       -1.80700        1.07470
C          3.45980       -1.18280        2.17130
S          2.46570        0.19320        1.74170
C          3.55890       -1.62630        3.52550
C          4.02740       -2.83770        3.93870
C          3.86020       -3.06620        5.32640
C          4.21410       -4.21810        6.04320
C          4.78100       -5.37900        5.34130
C          4.09130       -5.95230        4.27390
C          4.63490       -7.00730        3.57020
C          5.88430       -7.51540        3.90400
S          6.55490       -8.86070        2.95550
C          8.06300       -8.06020        2.29340
C          7.71880       -6.91300        1.36400
C          6.54750       -6.95820        4.99160
F          7.75530       -7.43010        5.36370
C          6.01450       -5.90450        5.70810
C          3.96320       -4.20080        7.40520
C          3.36300       -3.10010        8.06650
C          3.01910       -1.94140        7.35040
C          2.44730       -0.76490        8.01500
C          3.00520       -0.26480        9.19170
C          2.45660        0.83320        9.81890
C          1.34680        1.48950        9.29130
S          0.72340        2.89290       10.16810
C         -1.09320        2.67940       10.07620
C         -1.54240        1.34480       10.63420
C          0.83890        1.01800        8.08560
C          1.35880       -0.09770        7.46370
F         -0.18560        1.64990        7.47350
C          3.26410       -1.96270        5.98350
S          2.91530       -0.67910        4.85120
C          3.13730       -3.38850        9.44600
C          3.56300       -4.61640        9.80490
S          4.26370       -5.51950        8.50570
H         -2.31790        6.41820        7.49890
H         -3.73890        7.14980        5.44560
H         -4.17340        6.04840        1.11630
H         -5.11980        8.12220        0.21770
H         -7.29210       11.15390        3.35750
H         -7.01460       12.29360        2.02840
H         -5.13170       12.40600        3.66760
H         -4.56400       11.79750        2.10600
H         -4.82610       10.68060        3.44860
H         -6.12680        6.82190        4.85310
H         -1.75180        1.00110        3.28620
H         -0.79590       -1.13280        3.95840
H         -1.17530       -4.64960        5.22010
H         -1.60630       -3.24750        4.22740
H          1.21980       -4.03990        5.11900
H          0.85120       -2.63560        4.11800
H          0.55500       -4.26070        3.49140
H         -3.55210        1.42930        7.14600
H         -4.10440        0.51150        2.85800
H         -5.02240       -0.94070        1.32650
H         -6.54080       -3.09220        0.79290
H         -6.00870       -4.45580        2.73560
H         -4.44330       -6.12230        5.63220
H         -5.66860       -5.68470        4.43580
H         -4.80720       -3.27010        4.56780
H         -3.71620       -3.78430        5.85870
H         -5.46090       -3.85290        6.10170
H         -2.55210       -3.59850       -0.67580
H         -3.39310        0.34990       -4.94570
H         -3.42700        2.13870       -6.63240
H         -6.75700        5.09570       -8.77810
H         -7.57090        4.68010       -7.25830
H         -6.66520        2.67020       -9.39540
H         -7.51360        2.25460       -7.90200
H         -8.33530        3.19890       -9.14590
H         -7.33710        1.47990       -3.71930
H         -4.67430       -1.52660       -5.71370
H         -2.60040       -1.77340       -6.40990
H         -0.72230       -6.30570       -6.23700
H         -2.90340       -5.86160       -5.19390
H          3.02630       -5.89960       -7.94760
H          4.58610       -7.12770       -6.49570
H          4.26460       -7.12700       -4.04460
H          2.37180       -5.88620       -3.06410
H          0.80870       -4.66660       -4.50680
H         -0.20790       -4.03390       -9.48470
H          0.67070       -2.65120      -11.32300
H          2.86330       -1.53930      -11.09850
H          4.17840       -1.83500       -9.03080
H          3.29960       -3.20650       -7.18870
H          0.99410       -2.36260       -5.35870
H          0.04260        1.29730       -8.47390
H         -1.11800       -0.85100       -8.73780
H          2.58380        4.22050       -7.58920
H          1.27170        6.24950       -8.06230
H         -1.14160        6.31670       -7.53540
H         -2.22830        4.35630       -6.51730
H         -0.91070        2.32810       -6.02370
H          3.73010        0.41690       -7.05580
H          5.96440        0.55410       -6.03740
H          6.46800        2.31340       -4.37770
H          4.72660        3.95180       -3.76760
H          2.48530        3.81050       -4.77600
H          1.08980        1.36790       -3.55850
H          2.27460        3.12280       -1.98060
H          0.82420        5.02500       -1.36460
H         -1.89450        4.29730        2.53470
H         -1.90320        6.06890        2.54960
H          0.59680        6.08470        2.45350
H          0.61480        4.31710        2.45810
H          0.02260        5.19410        3.87060
H         -0.06550        0.57560        0.54220
H          5.82190       -2.15030       -3.21710
H          6.99280       -4.22830       -3.65330
H          8.42530       -7.62330       -3.77430
H          7.75770       -6.08850       -4.34840
H          8.91080       -4.93350       -2.38440
H          9.58750       -6.49270       -1.91230
H         10.07160       -5.74840       -3.44010
H          3.42350       -4.10940       -0.25860
H          4.64700       -2.64360        1.13900
H          4.46400       -3.56090        3.27560
H          3.12030       -5.56860        3.99970
H          4.10660       -7.44390        2.73700
H          8.67930       -7.73920        3.13160
H          8.57510       -8.85990        1.75970
H          8.62920       -6.49770        0.93480
H          7.20010       -6.12190        1.90410
H          7.07520       -7.25910        0.55840
H          6.57150       -5.49450        6.53620
H          3.88340       -0.73360        9.60860
H          2.88250        1.20820       10.73660
H         -1.46980        3.50620       10.67870
H         -1.41040        2.81800        9.04530
H         -1.17690        1.21050       11.65030
H         -2.62940        1.30150       10.64470
H         -1.17860        0.52200       10.02260
H          0.89550       -0.43540        6.55160
H          2.65140       -2.70800       10.12080
H          3.51030       -5.07360       10.77370
