
  xtb     03052201323D
 energy: -446.619896507438 gnorm: 0.000230123012 xtb: 6.4.1 (unknown)
266291  0     0  0            999 V2000
   -2.7044    5.7832    6.7257 C   0  0  0  0  0  0  0  0  0  0  0  0
   -3.4491    6.1370    5.6588 C   0  0  0  0  0  0  0  0  0  0  0  0
   -3.7934    5.0298    4.8265 C   0  0  0  0  0  0  0  0  0  0  0  0
   -4.4997    5.0433    3.6138 C   0  0  0  0  0  0  0  0  0  0  0  0
   -5.0605    6.2820    3.0588 C   0  0  0  0  0  0  0  0  0  0  0  0
   -4.8073    6.6586    1.7408 C   0  0  0  0  0  0  0  0  0  0  0  0
   -5.3314    7.8282    1.2336 C   0  0  0  0  0  0  0  0  0  0  0  0
   -6.1398    8.6575    2.0077 C   0  0  0  0  0  0  0  0  0  0  0  0
   -6.8016   10.1062    1.2354 S   0  0  0  0  0  0  0  0  0  0  0  0
   -6.6384   11.3984    2.5233 C   0  0  0  0  0  0  0  0  0  0  0  0
   -5.1993   11.5802    2.9621 C   0  0  0  0  0  0  0  0  0  0  0  0
   -6.4121    8.2512    3.3103 C   0  0  0  0  0  0  0  0  0  0  0  0
   -7.2246    8.9797    4.1094 F   0  0  0  0  0  0  0  0  0  0  0  0
   -5.8734    7.0966    3.8405 C   0  0  0  0  0  0  0  0  0  0  0  0
   -4.6289    3.8289    2.9545 C   0  0  0  0  0  0  0  0  0  0  0  0
   -4.1071    2.6176    3.4708 C   0  0  0  0  0  0  0  0  0  0  0  0
   -3.3771    2.6052    4.6705 C   0  0  0  0  0  0  0  0  0  0  0  0
   -2.7555    1.3601    5.1413 C   0  0  0  0  0  0  0  0  0  0  0  0
   -1.9592    0.6172    4.2720 C   0  0  0  0  0  0  0  0  0  0  0  0
   -1.4140   -0.5907    4.6560 C   0  0  0  0  0  0  0  0  0  0  0  0
   -1.6559   -1.1063    5.9241 C   0  0  0  0  0  0  0  0  0  0  0  0
   -1.0546   -2.6711    6.4894 S   0  0  0  0  0  0  0  0  0  0  0  0
   -0.8835   -3.6371    4.9420 C   0  0  0  0  0  0  0  0  0  0  0  0
    0.5251   -3.6386    4.3842 C   0  0  0  0  0  0  0  0  0  0  0  0
   -2.4103   -0.3284    6.8017 C   0  0  0  0  0  0  0  0  0  0  0  0
   -2.9560    0.8824    6.4328 C   0  0  0  0  0  0  0  0  0  0  0  0
   -2.6370   -0.7828    8.0523 F   0  0  0  0  0  0  0  0  0  0  0  0
   -3.2501    3.8198    5.3262 C   0  0  0  0  0  0  0  0  0  0  0  0
   -2.3596    4.0898    6.7997 S   0  0  0  0  0  0  0  0  0  0  0  0
   -4.4084    1.5166    2.6344 C   0  0  0  0  0  0  0  0  0  0  0  0
   -5.0858    1.8580    1.5011 C   0  0  0  0  0  0  0  0  0  0  0  0
   -5.4361    3.5699    1.4299 S   0  0  0  0  0  0  0  0  0  0  0  0
   -5.3551    0.9743    0.4101 C   0  0  0  0  0  0  0  0  0  0  0  0
   -5.2163   -0.3822    0.4294 C   0  0  0  0  0  0  0  0  0  0  0  0
   -5.2635   -0.9794   -0.8547 C   0  0  0  0  0  0  0  0  0  0  0  0
   -4.9003   -2.2990   -1.1780 C   0  0  0  0  0  0  0  0  0  0  0  0
   -4.5928   -3.2293   -0.0808 C   0  0  0  0  0  0  0  0  0  0  0  0
   -5.5444   -3.4942    0.8999 C   0  0  0  0  0  0  0  0  0  0  0  0
   -5.2391   -4.2637    2.0057 C   0  0  0  0  0  0  0  0  0  0  0  0
   -3.9577   -4.7726    2.1842 C   0  0  0  0  0  0  0  0  0  0  0  0
   -3.4242   -5.7243    3.5709 S   0  0  0  0  0  0  0  0  0  0  0  0
   -4.6962   -5.4127    4.8445 C   0  0  0  0  0  0  0  0  0  0  0  0
   -4.6659   -3.9904    5.3716 C   0  0  0  0  0  0  0  0  0  0  0  0
   -3.0224   -4.5220    1.1792 C   0  0  0  0  0  0  0  0  0  0  0  0
   -1.7658   -4.9962    1.3228 F   0  0  0  0  0  0  0  0  0  0  0  0
   -3.3206   -3.7772    0.0595 C   0  0  0  0  0  0  0  0  0  0  0  0
   -4.7176   -2.5805   -2.5204 C   0  0  0  0  0  0  0  0  0  0  0  0
   -4.9531   -1.6238   -3.5411 C   0  0  0  0  0  0  0  0  0  0  0  0
   -5.3377   -0.3132   -3.2187 C   0  0  0  0  0  0  0  0  0  0  0  0
   -5.3759    0.7503   -4.2324 C   0  0  0  0  0  0  0  0  0  0  0  0
   -4.2711    0.9690   -5.0559 C   0  0  0  0  0  0  0  0  0  0  0  0
   -4.2786    1.9822   -5.9883 C   0  0  0  0  0  0  0  0  0  0  0  0
   -5.3737    2.8343   -6.1240 C   0  0  0  0  0  0  0  0  0  0  0  0
   -5.2189    4.1398   -7.3081 S   0  0  0  0  0  0  0  0  0  0  0  0
   -6.8916    4.3175   -8.0265 C   0  0  0  0  0  0  0  0  0  0  0  0
   -7.3789    3.0281   -8.6559 C   0  0  0  0  0  0  0  0  0  0  0  0
   -6.4532    2.6283   -5.2708 C   0  0  0  0  0  0  0  0  0  0  0  0
   -6.4682    1.6006   -4.3475 C   0  0  0  0  0  0  0  0  0  0  0  0
   -7.5369    3.4331   -5.3179 F   0  0  0  0  0  0  0  0  0  0  0  0
   -5.4786   -0.0188   -1.8713 C   0  0  0  0  0  0  0  0  0  0  0  0
   -5.6757    1.5818   -1.2016 S   0  0  0  0  0  0  0  0  0  0  0  0
   -4.5502   -2.1014   -4.8142 C   0  0  0  0  0  0  0  0  0  0  0  0
   -3.9271   -3.3122   -4.7823 C   0  0  0  0  0  0  0  0  0  0  0  0
   -4.0126   -4.0370   -3.1799 S   0  0  0  0  0  0  0  0  0  0  0  0
   -2.9183   -3.7792   -5.7131 C   0  0  0  0  0  0  0  0  0  0  0  0
   -2.2201   -2.7834   -6.4018 C   0  0  0  0  0  0  0  0  0  0  0  0
   -0.9467   -2.9921   -6.8933 C   0  0  0  0  0  0  0  0  0  0  0  0
   -0.3778   -4.2721   -6.8047 C   0  0  0  0  0  0  0  0  0  0  0  0
   -1.1460   -5.3129   -6.2755 C   0  0  0  0  0  0  0  0  0  0  0  0
   -2.3760   -5.0662   -5.6997 C   0  0  0  0  0  0  0  0  0  0  0  0
    0.9545   -4.4745   -7.1685 N   0  0  0  0  0  0  0  0  0  0  0  0
    1.8150   -5.1953   -6.3283 C   0  0  0  0  0  0  0  0  0  0  0  0
    2.8874   -5.8981   -6.8763 C   0  0  0  0  0  0  0  0  0  0  0  0
    3.7626   -6.5836   -6.0565 C   0  0  0  0  0  0  0  0  0  0  0  0
    3.5840   -6.5851   -4.6827 C   0  0  0  0  0  0  0  0  0  0  0  0
    2.5173   -5.8938   -4.1340 C   0  0  0  0  0  0  0  0  0  0  0  0
    1.6373   -5.2040   -4.9454 C   0  0  0  0  0  0  0  0  0  0  0  0
    1.4883   -3.7138   -8.2184 C   0  0  0  0  0  0  0  0  0  0  0  0
    0.7540   -3.5506   -9.3912 C   0  0  0  0  0  0  0  0  0  0  0  0
    1.2486   -2.7711  -10.4185 C   0  0  0  0  0  0  0  0  0  0  0  0
    2.4804   -2.1505  -10.2954 C   0  0  0  0  0  0  0  0  0  0  0  0
    3.2182   -2.3193   -9.1351 C   0  0  0  0  0  0  0  0  0  0  0  0
    2.7317   -3.0938   -8.1009 C   0  0  0  0  0  0  0  0  0  0  0  0
   -0.1381   -1.7679   -7.0655 C   0  0  0  0  0  0  0  0  0  0  0  0
    0.7937   -1.5650   -6.0590 C   0  0  0  0  0  0  0  0  0  0  0  0
    1.3855   -0.3325   -5.8354 C   0  0  0  0  0  0  0  0  0  0  0  0
    1.1086    0.7266   -6.7131 C   0  0  0  0  0  0  0  0  0  0  0  0
    0.2408    0.4916   -7.7826 C   0  0  0  0  0  0  0  0  0  0  0  0
   -0.4052   -0.7201   -7.9377 C   0  0  0  0  0  0  0  0  0  0  0  0
    1.6712    1.9853   -6.5153 N   0  0  0  0  0  0  0  0  0  0  0  0
    0.9195    3.1397   -6.7848 C   0  0  0  0  0  0  0  0  0  0  0  0
    1.5298    4.2550   -7.3545 C   0  0  0  0  0  0  0  0  0  0  0  0
    0.7893    5.3917   -7.6175 C   0  0  0  0  0  0  0  0  0  0  0  0
   -0.5639    5.4303   -7.3241 C   0  0  0  0  0  0  0  0  0  0  0  0
   -1.1750    4.3251   -6.7546 C   0  0  0  0  0  0  0  0  0  0  0  0
   -0.4403    3.1872   -6.4810 C   0  0  0  0  0  0  0  0  0  0  0  0
    2.9563    2.0976   -5.9738 C   0  0  0  0  0  0  0  0  0  0  0  0
    3.9510    1.1880   -6.3314 C   0  0  0  0  0  0  0  0  0  0  0  0
    5.2041    1.2681   -5.7565 C   0  0  0  0  0  0  0  0  0  0  0  0
    5.4891    2.2568   -4.8292 C   0  0  0  0  0  0  0  0  0  0  0  0
    4.5104    3.1757   -4.4877 C   0  0  0  0  0  0  0  0  0  0  0  0
    3.2521    3.1009   -5.0520 C   0  0  0  0  0  0  0  0  0  0  0  0
    2.1043   -0.2249   -4.5718 C   0  0  0  0  0  0  0  0  0  0  0  0
    1.8007    0.5621   -3.5106 C   0  0  0  0  0  0  0  0  0  0  0  0
    2.4204    0.1452   -2.2992 C   0  0  0  0  0  0  0  0  0  0  0  0
    2.1451    0.5959   -1.0009 C   0  0  0  0  0  0  0  0  0  0  0  0
    1.2402    1.7224   -0.7347 C   0  0  0  0  0  0  0  0  0  0  0  0
    1.4494    2.9784   -1.2993 C   0  0  0  0  0  0  0  0  0  0  0  0
    0.6418    4.0439   -0.9543 C   0  0  0  0  0  0  0  0  0  0  0  0
   -0.4112    3.8882   -0.0578 C   0  0  0  0  0  0  0  0  0  0  0  0
   -1.3797    5.3005    0.4000 S   0  0  0  0  0  0  0  0  0  0  0  0
   -1.3486    5.1871    2.2292 C   0  0  0  0  0  0  0  0  0  0  0  0
    0.0613    5.1968    2.7830 C   0  0  0  0  0  0  0  0  0  0  0  0
   -0.6569    2.6111    0.4332 C   0  0  0  0  0  0  0  0  0  0  0  0
   -1.7149    2.3789    1.2410 F   0  0  0  0  0  0  0  0  0  0  0  0
    0.1606    1.5449    0.1256 C   0  0  0  0  0  0  0  0  0  0  0  0
    2.7133   -0.1206    0.0427 C   0  0  0  0  0  0  0  0  0  0  0  0
    3.5513   -1.2447   -0.1539 C   0  0  0  0  0  0  0  0  0  0  0  0
    3.8155   -1.7079   -1.4535 C   0  0  0  0  0  0  0  0  0  0  0  0
    4.5516   -2.9539   -1.6936 C   0  0  0  0  0  0  0  0  0  0  0  0
    5.5535   -3.0319   -2.6552 C   0  0  0  0  0  0  0  0  0  0  0  0
    6.2291   -4.2137   -2.8934 C   0  0  0  0  0  0  0  0  0  0  0  0
    5.9296   -5.3626   -2.1719 C   0  0  0  0  0  0  0  0  0  0  0  0
    6.6902   -6.9393   -2.3714 S   0  0  0  0  0  0  0  0  0  0  0  0
    8.1117   -6.6249   -3.4690 C   0  0  0  0  0  0  0  0  0  0  0  0
    9.2390   -5.9019   -2.7563 C   0  0  0  0  0  0  0  0  0  0  0  0
    4.9110   -5.2746   -1.2214 C   0  0  0  0  0  0  0  0  0  0  0  0
    4.2253   -4.1075   -0.9802 C   0  0  0  0  0  0  0  0  0  0  0  0
    4.5815   -6.3745   -0.5125 F   0  0  0  0  0  0  0  0  0  0  0  0
    3.2448   -0.9902   -2.4932 C   0  0  0  0  0  0  0  0  0  0  0  0
    3.2587   -1.4773   -4.1655 S   0  0  0  0  0  0  0  0  0  0  0  0
    3.9770   -1.8070    1.0747 C   0  0  0  0  0  0  0  0  0  0  0  0
    3.4598   -1.1828    2.1713 C   0  0  0  0  0  0  0  0  0  0  0  0
    2.4657    0.1932    1.7417 S   0  0  0  0  0  0  0  0  0  0  0  0
    3.5589   -1.6263    3.5255 C   0  0  0  0  0  0  0  0  0  0  0  0
    4.0274   -2.8377    3.9387 C   0  0  0  0  0  0  0  0  0  0  0  0
    3.8602   -3.0662    5.3264 C   0  0  0  0  0  0  0  0  0  0  0  0
    4.2141   -4.2181    6.0432 C   0  0  0  0  0  0  0  0  0  0  0  0
    4.7810   -5.3790    5.3413 C   0  0  0  0  0  0  0  0  0  0  0  0
    4.0913   -5.9523    4.2739 C   0  0  0  0  0  0  0  0  0  0  0  0
    4.6349   -7.0073    3.5702 C   0  0  0  0  0  0  0  0  0  0  0  0
    5.8843   -7.5154    3.9040 C   0  0  0  0  0  0  0  0  0  0  0  0
    6.5549   -8.8607    2.9555 S   0  0  0  0  0  0  0  0  0  0  0  0
    8.0630   -8.0602    2.2934 C   0  0  0  0  0  0  0  0  0  0  0  0
    7.7188   -6.9130    1.3640 C   0  0  0  0  0  0  0  0  0  0  0  0
    6.5475   -6.9582    4.9916 C   0  0  0  0  0  0  0  0  0  0  0  0
    7.7553   -7.4301    5.3637 F   0  0  0  0  0  0  0  0  0  0  0  0
    6.0145   -5.9045    5.7081 C   0  0  0  0  0  0  0  0  0  0  0  0
    3.9632   -4.2008    7.4052 C   0  0  0  0  0  0  0  0  0  0  0  0
    3.3630   -3.1001    8.0665 C   0  0  0  0  0  0  0  0  0  0  0  0
    3.0191   -1.9414    7.3504 C   0  0  0  0  0  0  0  0  0  0  0  0
    2.4473   -0.7649    8.0150 C   0  0  0  0  0  0  0  0  0  0  0  0
    3.0052   -0.2648    9.1917 C   0  0  0  0  0  0  0  0  0  0  0  0
    2.4566    0.8332    9.8189 C   0  0  0  0  0  0  0  0  0  0  0  0
    1.3468    1.4895    9.2913 C   0  0  0  0  0  0  0  0  0  0  0  0
    0.7234    2.8929   10.1681 S   0  0  0  0  0  0  0  0  0  0  0  0
   -1.0932    2.6794   10.0762 C   0  0  0  0  0  0  0  0  0  0  0  0
   -1.5424    1.3448   10.6342 C   0  0  0  0  0  0  0  0  0  0  0  0
    0.8389    1.0180    8.0856 C   0  0  0  0  0  0  0  0  0  0  0  0
    1.3588   -0.0977    7.4637 C   0  0  0  0  0  0  0  0  0  0  0  0
   -0.1856    1.6499    7.4735 F   0  0  0  0  0  0  0  0  0  0  0  0
    3.2641   -1.9627    5.9835 C   0  0  0  0  0  0  0  0  0  0  0  0
    2.9153   -0.6791    4.8512 S   0  0  0  0  0  0  0  0  0  0  0  0
    3.1373   -3.3885    9.4460 C   0  0  0  0  0  0  0  0  0  0  0  0
    3.5630   -4.6164    9.8049 C   0  0  0  0  0  0  0  0  0  0  0  0
    4.2637   -5.5195    8.5057 S   0  0  0  0  0  0  0  0  0  0  0  0
   -2.3179    6.4182    7.4989 H   0  0  0  0  0  0  0  0  0  0  0  0
   -3.7389    7.1498    5.4456 H   0  0  0  0  0  0  0  0  0  0  0  0
   -4.1734    6.0484    1.1163 H   0  0  0  0  0  0  0  0  0  0  0  0
   -5.1198    8.1222    0.2177 H   0  0  0  0  0  0  0  0  0  0  0  0
   -7.2921   11.1539    3.3575 H   0  0  0  0  0  0  0  0  0  0  0  0
   -7.0146   12.2936    2.0284 H   0  0  0  0  0  0  0  0  0  0  0  0
   -5.1317   12.4060    3.6676 H   0  0  0  0  0  0  0  0  0  0  0  0
   -4.5640   11.7975    2.1060 H   0  0  0  0  0  0  0  0  0  0  0  0
   -4.8261   10.6806    3.4486 H   0  0  0  0  0  0  0  0  0  0  0  0
   -6.1268    6.8219    4.8531 H   0  0  0  0  0  0  0  0  0  0  0  0
   -1.7518    1.0011    3.2862 H   0  0  0  0  0  0  0  0  0  0  0  0
   -0.7959   -1.1328    3.9584 H   0  0  0  0  0  0  0  0  0  0  0  0
   -1.1753   -4.6496    5.2201 H   0  0  0  0  0  0  0  0  0  0  0  0
   -1.6063   -3.2475    4.2274 H   0  0  0  0  0  0  0  0  0  0  0  0
    1.2198   -4.0399    5.1190 H   0  0  0  0  0  0  0  0  0  0  0  0
    0.8512   -2.6356    4.1180 H   0  0  0  0  0  0  0  0  0  0  0  0
    0.5550   -4.2607    3.4914 H   0  0  0  0  0  0  0  0  0  0  0  0
   -3.5521    1.4293    7.1460 H   0  0  0  0  0  0  0  0  0  0  0  0
   -4.1044    0.5115    2.8580 H   0  0  0  0  0  0  0  0  0  0  0  0
   -5.0224   -0.9407    1.3265 H   0  0  0  0  0  0  0  0  0  0  0  0
   -6.5408   -3.0922    0.7929 H   0  0  0  0  0  0  0  0  0  0  0  0
   -6.0087   -4.4558    2.7356 H   0  0  0  0  0  0  0  0  0  0  0  0
   -4.4433   -6.1223    5.6322 H   0  0  0  0  0  0  0  0  0  0  0  0
   -5.6686   -5.6847    4.4358 H   0  0  0  0  0  0  0  0  0  0  0  0
   -4.8072   -3.2701    4.5678 H   0  0  0  0  0  0  0  0  0  0  0  0
   -3.7162   -3.7843    5.8587 H   0  0  0  0  0  0  0  0  0  0  0  0
   -5.4609   -3.8529    6.1017 H   0  0  0  0  0  0  0  0  0  0  0  0
   -2.5521   -3.5985   -0.6758 H   0  0  0  0  0  0  0  0  0  0  0  0
   -3.3931    0.3499   -4.9457 H   0  0  0  0  0  0  0  0  0  0  0  0
   -3.4270    2.1387   -6.6324 H   0  0  0  0  0  0  0  0  0  0  0  0
   -6.7570    5.0957   -8.7781 H   0  0  0  0  0  0  0  0  0  0  0  0
   -7.5709    4.6801   -7.2583 H   0  0  0  0  0  0  0  0  0  0  0  0
   -6.6652    2.6702   -9.3954 H   0  0  0  0  0  0  0  0  0  0  0  0
   -7.5136    2.2546   -7.9020 H   0  0  0  0  0  0  0  0  0  0  0  0
   -8.3353    3.1989   -9.1459 H   0  0  0  0  0  0  0  0  0  0  0  0
   -7.3371    1.4799   -3.7193 H   0  0  0  0  0  0  0  0  0  0  0  0
   -4.6743   -1.5266   -5.7137 H   0  0  0  0  0  0  0  0  0  0  0  0
   -2.6004   -1.7734   -6.4099 H   0  0  0  0  0  0  0  0  0  0  0  0
   -0.7223   -6.3057   -6.2370 H   0  0  0  0  0  0  0  0  0  0  0  0
   -2.9034   -5.8616   -5.1939 H   0  0  0  0  0  0  0  0  0  0  0  0
    3.0263   -5.8996   -7.9476 H   0  0  0  0  0  0  0  0  0  0  0  0
    4.5861   -7.1277   -6.4957 H   0  0  0  0  0  0  0  0  0  0  0  0
    4.2646   -7.1270   -4.0446 H   0  0  0  0  0  0  0  0  0  0  0  0
    2.3718   -5.8862   -3.0641 H   0  0  0  0  0  0  0  0  0  0  0  0
    0.8087   -4.6666   -4.5068 H   0  0  0  0  0  0  0  0  0  0  0  0
   -0.2079   -4.0339   -9.4847 H   0  0  0  0  0  0  0  0  0  0  0  0
    0.6707   -2.6512  -11.3230 H   0  0  0  0  0  0  0  0  0  0  0  0
    2.8633   -1.5393  -11.0985 H   0  0  0  0  0  0  0  0  0  0  0  0
    4.1784   -1.8350   -9.0308 H   0  0  0  0  0  0  0  0  0  0  0  0
    3.2996   -3.2065   -7.1887 H   0  0  0  0  0  0  0  0  0  0  0  0
    0.9941   -2.3626   -5.3587 H   0  0  0  0  0  0  0  0  0  0  0  0
    0.0426    1.2973   -8.4739 H   0  0  0  0  0  0  0  0  0  0  0  0
   -1.1180   -0.8510   -8.7378 H   0  0  0  0  0  0  0  0  0  0  0  0
    2.5838    4.2205   -7.5892 H   0  0  0  0  0  0  0  0  0  0  0  0
    1.2717    6.2495   -8.0623 H   0  0  0  0  0  0  0  0  0  0  0  0
   -1.1416    6.3167   -7.5354 H   0  0  0  0  0  0  0  0  0  0  0  0
   -2.2283    4.3563   -6.5173 H   0  0  0  0  0  0  0  0  0  0  0  0
   -0.9107    2.3281   -6.0237 H   0  0  0  0  0  0  0  0  0  0  0  0
    3.7301    0.4169   -7.0558 H   0  0  0  0  0  0  0  0  0  0  0  0
    5.9644    0.5541   -6.0374 H   0  0  0  0  0  0  0  0  0  0  0  0
    6.4680    2.3134   -4.3777 H   0  0  0  0  0  0  0  0  0  0  0  0
    4.7266    3.9518   -3.7676 H   0  0  0  0  0  0  0  0  0  0  0  0
    2.4853    3.8105   -4.7760 H   0  0  0  0  0  0  0  0  0  0  0  0
    1.0898    1.3679   -3.5585 H   0  0  0  0  0  0  0  0  0  0  0  0
    2.2746    3.1228   -1.9806 H   0  0  0  0  0  0  0  0  0  0  0  0
    0.8242    5.0250   -1.3646 H   0  0  0  0  0  0  0  0  0  0  0  0
   -1.8945    4.2973    2.5347 H   0  0  0  0  0  0  0  0  0  0  0  0
   -1.9032    6.0689    2.5496 H   0  0  0  0  0  0  0  0  0  0  0  0
    0.5968    6.0847    2.4535 H   0  0  0  0  0  0  0  0  0  0  0  0
    0.6148    4.3171    2.4581 H   0  0  0  0  0  0  0  0  0  0  0  0
    0.0226    5.1941    3.8706 H   0  0  0  0  0  0  0  0  0  0  0  0
   -0.0655    0.5756    0.5422 H   0  0  0  0  0  0  0  0  0  0  0  0
    5.8219   -2.1503   -3.2171 H   0  0  0  0  0  0  0  0  0  0  0  0
    6.9928   -4.2283   -3.6533 H   0  0  0  0  0  0  0  0  0  0  0  0
    8.4253   -7.6233   -3.7743 H   0  0  0  0  0  0  0  0  0  0  0  0
    7.7577   -6.0885   -4.3484 H   0  0  0  0  0  0  0  0  0  0  0  0
    8.9108   -4.9335   -2.3844 H   0  0  0  0  0  0  0  0  0  0  0  0
    9.5875   -6.4927   -1.9123 H   0  0  0  0  0  0  0  0  0  0  0  0
   10.0716   -5.7484   -3.4401 H   0  0  0  0  0  0  0  0  0  0  0  0
    3.4235   -4.1094   -0.2586 H   0  0  0  0  0  0  0  0  0  0  0  0
    4.6470   -2.6436    1.1390 H   0  0  0  0  0  0  0  0  0  0  0  0
    4.4640   -3.5609    3.2756 H   0  0  0  0  0  0  0  0  0  0  0  0
    3.1203   -5.5686    3.9997 H   0  0  0  0  0  0  0  0  0  0  0  0
    4.1066   -7.4439    2.7370 H   0  0  0  0  0  0  0  0  0  0  0  0
    8.6793   -7.7392    3.1316 H   0  0  0  0  0  0  0  0  0  0  0  0
    8.5751   -8.8599    1.7597 H   0  0  0  0  0  0  0  0  0  0  0  0
    8.6292   -6.4977    0.9348 H   0  0  0  0  0  0  0  0  0  0  0  0
    7.2001   -6.1219    1.9041 H   0  0  0  0  0  0  0  0  0  0  0  0
    7.0752   -7.2591    0.5584 H   0  0  0  0  0  0  0  0  0  0  0  0
    6.5715   -5.4945    6.5362 H   0  0  0  0  0  0  0  0  0  0  0  0
    3.8834   -0.7336    9.6086 H   0  0  0  0  0  0  0  0  0  0  0  0
    2.8825    1.2082   10.7366 H   0  0  0  0  0  0  0  0  0  0  0  0
   -1.4698    3.5062   10.6787 H   0  0  0  0  0  0  0  0  0  0  0  0
   -1.4104    2.8180    9.0453 H   0  0  0  0  0  0  0  0  0  0  0  0
   -1.1769    1.2105   11.6503 H   0  0  0  0  0  0  0  0  0  0  0  0
   -2.6294    1.3015   10.6447 H   0  0  0  0  0  0  0  0  0  0  0  0
   -1.1786    0.5220   10.0226 H   0  0  0  0  0  0  0  0  0  0  0  0
    0.8955   -0.4354    6.5516 H   0  0  0  0  0  0  0  0  0  0  0  0
    2.6514   -2.7080   10.1208 H   0  0  0  0  0  0  0  0  0  0  0  0
    3.5103   -5.0736   10.7737 H   0  0  0  0  0  0  0  0  0  0  0  0
  1  2  2  0  0  0  0
  2  3  1  0  0  0  0
  3  4  2  0  0  0  0
  4  5  1  0  0  0  0
  5  6  2  0  0  0  0
  6  7  1  0  0  0  0
  7  8  2  0  0  0  0
  8  9  1  0  0  0  0
  9 10  1  0  0  0  0
 10 11  1  0  0  0  0
  8 12  1  0  0  0  0
 12 13  1  0  0  0  0
 12 14  2  0  0  0  0
  4 15  1  0  0  0  0
 15 16  2  0  0  0  0
 16 17  1  0  0  0  0
 17 18  1  0  0  0  0
 18 19  2  0  0  0  0
 19 20  1  0  0  0  0
 20 21  2  0  0  0  0
 21 22  1  0  0  0  0
 22 23  1  0  0  0  0
 23 24  1  0  0  0  0
 21 25  1  0  0  0  0
 25 26  2  0  0  0  0
 25 27  1  0  0  0  0
 17 28  2  0  0  0  0
 28 29  1  0  0  0  0
 16 30  1  0  0  0  0
 30 31  2  0  0  0  0
 31 32  1  0  0  0  0
 31 33  1  0  0  0  0
 33 34  2  0  0  0  0
 34 35  1  0  0  0  0
 35 36  2  0  0  0  0
 36 37  1  0  0  0  0
 37 38  2  0  0  0  0
 38 39  1  0  0  0  0
 39 40  2  0  0  0  0
 40 41  1  0  0  0  0
 41 42  1  0  0  0  0
 42 43  1  0  0  0  0
 40 44  1  0  0  0  0
 44 45  1  0  0  0  0
 44 46  2  0  0  0  0
 36 47  1  0  0  0  0
 47 48  2  0  0  0  0
 48 49  1  0  0  0  0
 49 50  1  0  0  0  0
 50 51  2  0  0  0  0
 51 52  1  0  0  0  0
 52 53  2  0  0  0  0
 53 54  1  0  0  0  0
 54 55  1  0  0  0  0
 55 56  1  0  0  0  0
 53 57  1  0  0  0  0
 57 58  2  0  0  0  0
 57 59  1  0  0  0  0
 49 60  2  0  0  0  0
 60 61  1  0  0  0  0
 48 62  1  0  0  0  0
 62 63  2  0  0  0  0
 63 64  1  0  0  0  0
 63 65  1  0  0  0  0
 65 66  2  0  0  0  0
 66 67  1  0  0  0  0
 67 68  2  0  0  0  0
 68 69  1  0  0  0  0
 69 70  2  0  0  0  0
 68 71  1  0  0  0  0
 71 72  1  0  0  0  0
 72 73  2  0  0  0  0
 73 74  1  0  0  0  0
 74 75  2  0  0  0  0
 75 76  1  0  0  0  0
 76 77  2  0  0  0  0
 71 78  1  0  0  0  0
 78 79  2  0  0  0  0
 79 80  1  0  0  0  0
 80 81  2  0  0  0  0
 81 82  1  0  0  0  0
 82 83  2  0  0  0  0
 67 84  1  0  0  0  0
 84 85  2  0  0  0  0
 85 86  1  0  0  0  0
 86 87  2  0  0  0  0
 87 88  1  0  0  0  0
 88 89  2  0  0  0  0
 87 90  1  0  0  0  0
 90 91  1  0  0  0  0
 91 92  2  0  0  0  0
 92 93  1  0  0  0  0
 93 94  2  0  0  0  0
 94 95  1  0  0  0  0
 95 96  2  0  0  0  0
 90 97  1  0  0  0  0
 97 98  2  0  0  0  0
 98 99  1  0  0  0  0
 99100  2  0  0  0  0
100101  1  0  0  0  0
101102  2  0  0  0  0
 86103  1  0  0  0  0
103104  2  0  0  0  0
104105  1  0  0  0  0
105106  2  0  0  0  0
106107  1  0  0  0  0
107108  2  0  0  0  0
108109  1  0  0  0  0
109110  2  0  0  0  0
110111  1  0  0  0  0
111112  1  0  0  0  0
112113  1  0  0  0  0
110114  1  0  0  0  0
114115  1  0  0  0  0
114116  2  0  0  0  0
106117  1  0  0  0  0
117118  2  0  0  0  0
118119  1  0  0  0  0
119120  1  0  0  0  0
120121  2  0  0  0  0
121122  1  0  0  0  0
122123  2  0  0  0  0
123124  1  0  0  0  0
124125  1  0  0  0  0
125126  1  0  0  0  0
123127  1  0  0  0  0
127128  2  0  0  0  0
127129  1  0  0  0  0
119130  2  0  0  0  0
130131  1  0  0  0  0
118132  1  0  0  0  0
132133  2  0  0  0  0
133134  1  0  0  0  0
133135  1  0  0  0  0
135136  2  0  0  0  0
136137  1  0  0  0  0
137138  2  0  0  0  0
138139  1  0  0  0  0
139140  2  0  0  0  0
140141  1  0  0  0  0
141142  2  0  0  0  0
142143  1  0  0  0  0
143144  1  0  0  0  0
144145  1  0  0  0  0
142146  1  0  0  0  0
146147  1  0  0  0  0
146148  2  0  0  0  0
138149  1  0  0  0  0
149150  2  0  0  0  0
150151  1  0  0  0  0
151152  1  0  0  0  0
152153  2  0  0  0  0
153154  1  0  0  0  0
154155  2  0  0  0  0
155156  1  0  0  0  0
156157  1  0  0  0  0
157158  1  0  0  0  0
155159  1  0  0  0  0
159160  2  0  0  0  0
159161  1  0  0  0  0
151162  2  0  0  0  0
162163  1  0  0  0  0
150164  1  0  0  0  0
164165  2  0  0  0  0
165166  1  0  0  0  0
 29  1  1  0  0  0  0
 61 33  1  0  0  0  0
 70 65  1  0  0  0  0
 77 72  1  0  0  0  0
 83 78  1  0  0  0  0
 89 84  1  0  0  0  0
 96 91  1  0  0  0  0
102 97  1  0  0  0  0
131103  1  0  0  0  0
163135  1  0  0  0  0
 28  3  1  0  0  0  0
 60 35  1  0  0  0  0
130105  1  0  0  0  0
162137  1  0  0  0  0
 14  5  1  0  0  0  0
 32 15  1  0  0  0  0
 46 37  1  0  0  0  0
 64 47  1  0  0  0  0
116107  1  0  0  0  0
134117  1  0  0  0  0
148139  1  0  0  0  0
166149  1  0  0  0  0
 26 18  1  0  0  0  0
 58 50  1  0  0  0  0
128120  1  0  0  0  0
160152  1  0  0  0  0
  1167  1  0  0  0  0
  2168  1  0  0  0  0
  6169  1  0  0  0  0
  7170  1  0  0  0  0
 10171  1  0  0  0  0
 10172  1  0  0  0  0
 11173  1  0  0  0  0
 11174  1  0  0  0  0
 11175  1  0  0  0  0
 14176  1  0  0  0  0
 19177  1  0  0  0  0
 20178  1  0  0  0  0
 23179  1  0  0  0  0
 23180  1  0  0  0  0
 24181  1  0  0  0  0
 24182  1  0  0  0  0
 24183  1  0  0  0  0
 26184  1  0  0  0  0
 30185  1  0  0  0  0
 34186  1  0  0  0  0
 38187  1  0  0  0  0
 39188  1  0  0  0  0
 42189  1  0  0  0  0
 42190  1  0  0  0  0
 43191  1  0  0  0  0
 43192  1  0  0  0  0
 43193  1  0  0  0  0
 46194  1  0  0  0  0
 51195  1  0  0  0  0
 52196  1  0  0  0  0
 55197  1  0  0  0  0
 55198  1  0  0  0  0
 56199  1  0  0  0  0
 56200  1  0  0  0  0
 56201  1  0  0  0  0
 58202  1  0  0  0  0
 62203  1  0  0  0  0
 66204  1  0  0  0  0
 69205  1  0  0  0  0
 70206  1  0  0  0  0
 73207  1  0  0  0  0
 74208  1  0  0  0  0
 75209  1  0  0  0  0
 76210  1  0  0  0  0
 77211  1  0  0  0  0
 79212  1  0  0  0  0
 80213  1  0  0  0  0
 81214  1  0  0  0  0
 82215  1  0  0  0  0
 83216  1  0  0  0  0
 85217  1  0  0  0  0
 88218  1  0  0  0  0
 89219  1  0  0  0  0
 92220  1  0  0  0  0
 93221  1  0  0  0  0
 94222  1  0  0  0  0
 95223  1  0  0  0  0
 96224  1  0  0  0  0
 98225  1  0  0  0  0
 99226  1  0  0  0  0
100227  1  0  0  0  0
101228  1  0  0  0  0
102229  1  0  0  0  0
104230  1  0  0  0  0
108231  1  0  0  0  0
109232  1  0  0  0  0
112233  1  0  0  0  0
112234  1  0  0  0  0
113235  1  0  0  0  0
113236  1  0  0  0  0
113237  1  0  0  0  0
116238  1  0  0  0  0
121239  1  0  0  0  0
122240  1  0  0  0  0
125241  1  0  0  0  0
125242  1  0  0  0  0
126243  1  0  0  0  0
126244  1  0  0  0  0
126245  1  0  0  0  0
128246  1  0  0  0  0
132247  1  0  0  0  0
136248  1  0  0  0  0
140249  1  0  0  0  0
141250  1  0  0  0  0
144251  1  0  0  0  0
144252  1  0  0  0  0
145253  1  0  0  0  0
145254  1  0  0  0  0
145255  1  0  0  0  0
148256  1  0  0  0  0
153257  1  0  0  0  0
154258  1  0  0  0  0
157259  1  0  0  0  0
157260  1  0  0  0  0
158261  1  0  0  0  0
158262  1  0  0  0  0
158263  1  0  0  0  0
160264  1  0  0  0  0
164265  1  0  0  0  0
165266  1  0  0  0  0
M  END
