238

C          2.42880       -5.77240       19.29820
C          1.98410       -6.17470       18.10100
C          2.82940       -7.23670       17.55850
C          3.78070       -7.48550       18.50120
C          3.57280       -6.63970       19.72010
C          4.95750       -6.08660       20.04400
C          5.88330       -7.29600       19.94110
S          5.31800       -8.27830       18.48770
C          2.74140       -7.85630       16.27560
C          1.82330       -7.57260       15.32740
C          1.78060       -8.14800       14.02660
C          0.82780       -7.92490       13.08030
C          1.12540       -8.62760       11.85060
C          2.27360       -9.33550       12.07390
C          2.75280       -9.16510       13.48350
C          4.24690       -8.88840       13.33460
C          4.73370       -9.93920       12.34090
S          3.43490      -10.07990       11.04160
C          0.44940       -8.51830       10.59810
C         -0.65630       -7.78230       10.36570
C         -1.21680       -7.57030        9.07350
C         -2.26410       -6.75040        8.75880
C         -2.50260       -6.62850        7.36800
C         -3.40870       -5.77350        6.71740
C         -4.39540       -4.99130        7.47100
C         -5.22550       -5.60960        8.40620
C         -6.18440       -4.88660        9.08130
C         -6.34590       -3.51810        8.86670
S         -7.59150       -2.68890        9.80340
C         -8.18880       -1.37700        8.66250
C         -9.60700       -1.00260        9.04510
C         -5.48430       -2.90720        7.96080
F         -5.53790       -1.57350        7.74420
C         -4.53660       -3.62440        7.25960
C         -3.31020       -5.69840        5.33660
C         -2.40370       -6.47960        4.57660
C         -1.52950       -7.36800        5.22470
C         -0.54190       -8.16710        4.48940
C          0.33120       -7.57780        3.57660
C          1.29040       -8.33280        2.93600
C          1.40920       -9.70100        3.16840
S          2.66230      -10.58040        2.28060
C          3.38200      -11.68510        3.55230
C          3.89920      -10.91190        4.74870
C          0.50840      -10.28200        4.05550
C         -0.43960       -9.53430        4.72320
F          0.53160      -11.61180        4.29170
C         -1.59520       -7.40830        6.60820
S         -0.50470       -8.29490        7.64090
C         -2.49610       -6.19970        3.19030
C         -3.39030       -5.21510        2.89080
S         -4.24340       -4.63880        4.31110
C         -3.55190       -4.53650        1.64790
C         -4.20110       -3.35560        1.44000
C         -3.97180       -2.79800        0.15760
C         -4.35010       -1.52360       -0.30010
C         -5.27130       -0.68920        0.47900
C         -4.99820        0.64790        0.76330
C         -5.89250        1.40880        1.48380
C         -7.09240        0.87490        1.95490
S         -8.13090        1.94830        2.89280
C         -9.83180        1.32440        2.58080
C        -10.81800        2.44240        2.85610
C         -7.34070       -0.46770        1.68440
F         -8.46220       -1.07610        2.13640
C         -6.45950       -1.23750        0.95350
C         -3.78920       -1.10660       -1.49820
C         -2.96050       -1.93860       -2.29290
C         -2.63550       -3.23730       -1.86430
C         -1.77150       -4.10910       -2.66930
C         -2.16430       -5.40650       -2.99180
C         -1.38480       -6.19080       -3.81520
C         -0.17870       -5.72390       -4.33410
S          0.73310       -6.80210       -5.39810
C          1.35110       -5.68650       -6.71460
C          0.22850       -4.93630       -7.40160
C          0.23500       -4.45370       -3.94370
C         -0.54540       -3.64880       -3.13990
F          1.42540       -3.95620       -4.34670
C         -3.13150       -3.62320       -0.63050
S         -2.68790       -5.08080        0.22100
C         -2.50620       -1.27470       -3.45800
C         -2.90340        0.02860       -3.53550
S         -3.96210        0.47480       -2.21430
C         -2.41340        1.00930       -4.45110
C         -1.59780        0.79880       -5.52540
C         -1.10560        1.99210       -6.10980
C         -0.16180        2.11440       -7.14600
C          0.32970        0.93560       -7.86880
C         -0.55560       -0.00550       -8.39390
C         -0.08720       -1.10050       -9.08830
C          1.27730       -1.30810       -9.27780
S          1.77550       -2.76030      -10.15980
C          3.12130       -2.16760      -11.24890
C          2.66880       -1.03120      -12.14280
C          2.15040       -0.37800       -8.72250
F          3.48670       -0.53850       -8.82590
C          1.69480        0.73370       -8.04410
C          0.29570        3.39470       -7.42020
C         -0.16550        4.53760       -6.72190
C         -1.11810        4.41940       -5.69720
C         -1.52820        5.59870       -4.92460
C         -0.56490        6.43860       -4.36470
C         -0.93430        7.57980       -3.68750
C         -2.27520        7.92420       -3.53140
S         -2.63070        9.41560       -2.64710
C         -3.99100       10.17600       -3.60970
C         -3.59900       10.41260       -5.05430
C         -3.22660        7.04610       -4.04100
C         -2.87030        5.90690       -4.73640
F         -4.54550        7.29000       -3.88210
C         -1.57700        3.14180       -5.42560
S         -2.66580        2.71300       -4.13450
C          0.45500        5.72230       -7.18080
C          1.37550        5.51900       -8.16450
S          1.48930        3.83200       -8.62270
C          2.22920        6.52580       -8.70460
C          3.15140        6.46390       -9.70450
C          3.86850        7.67870       -9.88830
C          4.86080        7.98240      -10.83480
C          5.36520        6.96570      -11.76450
C          5.78010        5.71730      -11.30010
C          6.27690        4.77340      -12.17130
C          6.36950        5.02530      -13.54040
S          6.98660        3.72250      -14.55740
C          7.83470        4.59570      -15.93440
C          8.88330        3.67380      -16.52460
C          5.92760        6.26520      -13.99240
F          5.93710        6.56780      -15.31040
C          5.44990        7.22840      -13.12720
C          5.35290        9.28210      -10.82820
C          4.93090       10.27450       -9.90900
C          3.95750        9.96720       -8.95240
C          3.44560       10.91360       -7.95140
C          2.87690       12.13460       -8.30530
C          2.25050       12.91540       -7.35570
C          2.18020       12.51880       -6.02120
S          1.28650       13.53410       -4.88590
C          0.48650       12.28940       -3.78940
C         -0.79280       12.86750       -3.21930
C          2.83140       11.34010       -5.66850
C          3.43880       10.53860       -6.61110
F          2.88230       10.93490       -4.38060
C          3.44930        8.67730       -8.97800
S          2.18760        8.09960       -7.92920
C          5.64470       11.49700      -10.08210
C          6.55090       11.43650      -11.07810
S          6.60590        9.90090      -11.87470
H          2.00680       -5.01140       19.92780
H          1.14550       -5.76140       17.57060
H          3.24290       -7.27070       20.55740
H          5.23230       -5.33410       19.30230
H          5.01350       -5.64230       21.03770
H          6.92680       -7.03260       19.78270
H          5.80100       -7.93650       20.82030
H          3.49990       -8.60460       16.08660
H          1.05180       -6.84290       15.53320
H         -0.01770       -7.27230       13.20230
H          2.61870      -10.10380       14.03730
H          4.39210       -7.88490       12.93020
H          4.79490       -8.97080       14.27240
H          5.66940       -9.67550       11.85290
H          4.83420      -10.91760       12.81240
H          0.91380       -9.04750        9.77370
H         -1.15060       -7.26140       11.17400
H         -2.81830       -6.20320        9.50060
H         -5.13580       -6.67160        8.57710
H         -6.83730       -5.37190        9.79020
H         -7.52060       -0.52070        8.74160
H         -8.14730       -1.78600        7.65420
H        -10.26390       -1.86650        8.97260
H         -9.97300       -0.22600        8.37680
H         -9.64080       -0.62860       10.06590
H         -3.89290       -3.09480        6.57510
H          0.28250       -6.51430        3.39960
H          1.97620       -7.87100        2.24280
H          2.64040      -12.42820        3.83680
H          4.19520      -12.18000        3.02120
H          4.38390      -11.59420        5.44400
H          4.62050      -10.16020        4.43480
H          3.08510      -10.41240        5.27110
H         -1.11030      -10.03470        5.40420
H         -1.90100       -6.68850        2.43970
H         -4.76200       -2.86140        2.21310
H         -4.07250        1.09080        0.43100
H         -5.67660        2.44340        1.70000
H         -9.87470        1.00950        1.53930
H        -10.01220        0.47140        3.23310
H        -11.83160        2.08920        2.67840
H        -10.74020        2.77400        3.88900
H        -10.62360        3.29240        2.20600
H         -6.71580       -2.26640        0.75280
H         -3.10400       -5.78690       -2.62200
H         -1.70460       -7.18510       -4.08500
H          1.84510       -6.36890       -7.40560
H          2.09280       -5.01280       -6.29170
H         -0.25690       -4.24540       -6.71420
H         -0.51920       -5.63000       -7.78010
H          0.63060       -4.36520       -8.23620
H         -0.17100       -2.67610       -2.85960
H         -1.87690       -1.73880       -4.19380
H         -1.31480       -0.18000       -5.86590
H         -1.61910        0.14310       -8.28390
H         -0.77610       -1.81880       -9.50510
H          3.37500       -3.05230      -11.83300
H          3.97550       -1.89040      -10.63520
H          3.47150       -0.76270      -12.82650
H          2.41150       -0.15170      -11.55480
H          1.79720       -1.32540      -12.72410
H          2.41880        1.41610       -7.62760
H          0.48070        6.18790       -4.45730
H         -0.18510        8.23370       -3.26830
H         -4.87700        9.55080       -3.52440
H         -4.16950       11.11780       -3.09080
H         -4.40150       10.93600       -5.57010
H         -2.69460       11.01450       -5.11190
H         -3.41920        9.46950       -5.56750
H         -3.64990        5.27530       -5.13330
H          0.22960        6.70000       -6.79460
H          3.30370        5.58200      -10.30090
H          5.74340        5.50170      -10.24320
H          6.60990        3.81440      -11.80600
H          7.08910        4.87220      -16.67840
H          8.28920        5.49200      -15.51520
H          8.42190        2.76630      -16.90760
H          9.61640        3.39580      -15.77060
H          9.39470        4.17690      -17.34240
H          5.11530        8.16860      -13.53670
H          2.88300       12.44740       -9.33850
H          1.77760       13.84330       -7.63750
H          1.18520       12.02940       -2.99600
H          0.28220       11.41250       -4.40270
H         -1.46610       13.17210       -4.01800
H         -0.57830       13.73630       -2.60170
H         -1.28660       12.11520       -2.60730
H          3.91700        9.62820       -6.28490
H          5.47970       12.36510       -9.46980
H          7.21350       12.20940      -11.41540
