
  xtb     03032214283D
 energy: -403.540543200254 gnorm: 0.000207363991 xtb: 6.4.1 (unknown)
238261  0     0  0            999 V2000
    2.4288   -5.7724   19.2982 C   0  0  0  0  0  0  0  0  0  0  0  0
    1.9841   -6.1747   18.1010 C   0  0  0  0  0  0  0  0  0  0  0  0
    2.8294   -7.2367   17.5585 C   0  0  0  0  0  0  0  0  0  0  0  0
    3.7807   -7.4855   18.5012 C   0  0  0  0  0  0  0  0  0  0  0  0
    3.5728   -6.6397   19.7201 C   0  0  0  0  0  0  0  0  0  0  0  0
    4.9575   -6.0866   20.0440 C   0  0  0  0  0  0  0  0  0  0  0  0
    5.8833   -7.2960   19.9411 C   0  0  0  0  0  0  0  0  0  0  0  0
    5.3180   -8.2783   18.4877 S   0  0  0  0  0  0  0  0  0  0  0  0
    2.7414   -7.8563   16.2756 C   0  0  0  0  0  0  0  0  0  0  0  0
    1.8233   -7.5726   15.3274 C   0  0  0  0  0  0  0  0  0  0  0  0
    1.7806   -8.1480   14.0266 C   0  0  0  0  0  0  0  0  0  0  0  0
    0.8278   -7.9249   13.0803 C   0  0  0  0  0  0  0  0  0  0  0  0
    1.1254   -8.6276   11.8506 C   0  0  0  0  0  0  0  0  0  0  0  0
    2.2736   -9.3355   12.0739 C   0  0  0  0  0  0  0  0  0  0  0  0
    2.7528   -9.1651   13.4835 C   0  0  0  0  0  0  0  0  0  0  0  0
    4.2469   -8.8884   13.3346 C   0  0  0  0  0  0  0  0  0  0  0  0
    4.7337   -9.9392   12.3409 C   0  0  0  0  0  0  0  0  0  0  0  0
    3.4349  -10.0799   11.0416 S   0  0  0  0  0  0  0  0  0  0  0  0
    0.4494   -8.5183   10.5981 C   0  0  0  0  0  0  0  0  0  0  0  0
   -0.6563   -7.7823   10.3657 C   0  0  0  0  0  0  0  0  0  0  0  0
   -1.2168   -7.5703    9.0735 C   0  0  0  0  0  0  0  0  0  0  0  0
   -2.2641   -6.7504    8.7588 C   0  0  0  0  0  0  0  0  0  0  0  0
   -2.5026   -6.6285    7.3680 C   0  0  0  0  0  0  0  0  0  0  0  0
   -3.4087   -5.7735    6.7174 C   0  0  0  0  0  0  0  0  0  0  0  0
   -4.3954   -4.9913    7.4710 C   0  0  0  0  0  0  0  0  0  0  0  0
   -5.2255   -5.6096    8.4062 C   0  0  0  0  0  0  0  0  0  0  0  0
   -6.1844   -4.8866    9.0813 C   0  0  0  0  0  0  0  0  0  0  0  0
   -6.3459   -3.5181    8.8667 C   0  0  0  0  0  0  0  0  0  0  0  0
   -7.5915   -2.6889    9.8034 S   0  0  0  0  0  0  0  0  0  0  0  0
   -8.1888   -1.3770    8.6625 C   0  0  0  0  0  0  0  0  0  0  0  0
   -9.6070   -1.0026    9.0451 C   0  0  0  0  0  0  0  0  0  0  0  0
   -5.4843   -2.9072    7.9608 C   0  0  0  0  0  0  0  0  0  0  0  0
   -5.5379   -1.5735    7.7442 F   0  0  0  0  0  0  0  0  0  0  0  0
   -4.5366   -3.6244    7.2596 C   0  0  0  0  0  0  0  0  0  0  0  0
   -3.3102   -5.6984    5.3366 C   0  0  0  0  0  0  0  0  0  0  0  0
   -2.4037   -6.4796    4.5766 C   0  0  0  0  0  0  0  0  0  0  0  0
   -1.5295   -7.3680    5.2247 C   0  0  0  0  0  0  0  0  0  0  0  0
   -0.5419   -8.1671    4.4894 C   0  0  0  0  0  0  0  0  0  0  0  0
    0.3312   -7.5778    3.5766 C   0  0  0  0  0  0  0  0  0  0  0  0
    1.2904   -8.3328    2.9360 C   0  0  0  0  0  0  0  0  0  0  0  0
    1.4092   -9.7010    3.1684 C   0  0  0  0  0  0  0  0  0  0  0  0
    2.6623  -10.5804    2.2806 S   0  0  0  0  0  0  0  0  0  0  0  0
    3.3820  -11.6851    3.5523 C   0  0  0  0  0  0  0  0  0  0  0  0
    3.8992  -10.9119    4.7487 C   0  0  0  0  0  0  0  0  0  0  0  0
    0.5084  -10.2820    4.0555 C   0  0  0  0  0  0  0  0  0  0  0  0
   -0.4396   -9.5343    4.7232 C   0  0  0  0  0  0  0  0  0  0  0  0
    0.5316  -11.6118    4.2917 F   0  0  0  0  0  0  0  0  0  0  0  0
   -1.5952   -7.4083    6.6082 C   0  0  0  0  0  0  0  0  0  0  0  0
   -0.5047   -8.2949    7.6409 S   0  0  0  0  0  0  0  0  0  0  0  0
   -2.4961   -6.1997    3.1903 C   0  0  0  0  0  0  0  0  0  0  0  0
   -3.3903   -5.2151    2.8908 C   0  0  0  0  0  0  0  0  0  0  0  0
   -4.2434   -4.6388    4.3111 S   0  0  0  0  0  0  0  0  0  0  0  0
   -3.5519   -4.5365    1.6479 C   0  0  0  0  0  0  0  0  0  0  0  0
   -4.2011   -3.3556    1.4400 C   0  0  0  0  0  0  0  0  0  0  0  0
   -3.9718   -2.7980    0.1576 C   0  0  0  0  0  0  0  0  0  0  0  0
   -4.3501   -1.5236   -0.3001 C   0  0  0  0  0  0  0  0  0  0  0  0
   -5.2713   -0.6892    0.4790 C   0  0  0  0  0  0  0  0  0  0  0  0
   -4.9982    0.6479    0.7633 C   0  0  0  0  0  0  0  0  0  0  0  0
   -5.8925    1.4088    1.4838 C   0  0  0  0  0  0  0  0  0  0  0  0
   -7.0924    0.8749    1.9549 C   0  0  0  0  0  0  0  0  0  0  0  0
   -8.1309    1.9483    2.8928 S   0  0  0  0  0  0  0  0  0  0  0  0
   -9.8318    1.3244    2.5808 C   0  0  0  0  0  0  0  0  0  0  0  0
  -10.8180    2.4424    2.8561 C   0  0  0  0  0  0  0  0  0  0  0  0
   -7.3407   -0.4677    1.6844 C   0  0  0  0  0  0  0  0  0  0  0  0
   -8.4622   -1.0761    2.1364 F   0  0  0  0  0  0  0  0  0  0  0  0
   -6.4595   -1.2375    0.9535 C   0  0  0  0  0  0  0  0  0  0  0  0
   -3.7892   -1.1066   -1.4982 C   0  0  0  0  0  0  0  0  0  0  0  0
   -2.9605   -1.9386   -2.2929 C   0  0  0  0  0  0  0  0  0  0  0  0
   -2.6355   -3.2373   -1.8643 C   0  0  0  0  0  0  0  0  0  0  0  0
   -1.7715   -4.1091   -2.6693 C   0  0  0  0  0  0  0  0  0  0  0  0
   -2.1643   -5.4065   -2.9918 C   0  0  0  0  0  0  0  0  0  0  0  0
   -1.3848   -6.1908   -3.8152 C   0  0  0  0  0  0  0  0  0  0  0  0
   -0.1787   -5.7239   -4.3341 C   0  0  0  0  0  0  0  0  0  0  0  0
    0.7331   -6.8021   -5.3981 S   0  0  0  0  0  0  0  0  0  0  0  0
    1.3511   -5.6865   -6.7146 C   0  0  0  0  0  0  0  0  0  0  0  0
    0.2285   -4.9363   -7.4016 C   0  0  0  0  0  0  0  0  0  0  0  0
    0.2350   -4.4537   -3.9437 C   0  0  0  0  0  0  0  0  0  0  0  0
   -0.5454   -3.6488   -3.1399 C   0  0  0  0  0  0  0  0  0  0  0  0
    1.4254   -3.9562   -4.3467 F   0  0  0  0  0  0  0  0  0  0  0  0
   -3.1315   -3.6232   -0.6305 C   0  0  0  0  0  0  0  0  0  0  0  0
   -2.6879   -5.0808    0.2210 S   0  0  0  0  0  0  0  0  0  0  0  0
   -2.5062   -1.2747   -3.4580 C   0  0  0  0  0  0  0  0  0  0  0  0
   -2.9034    0.0286   -3.5355 C   0  0  0  0  0  0  0  0  0  0  0  0
   -3.9621    0.4748   -2.2143 S   0  0  0  0  0  0  0  0  0  0  0  0
   -2.4134    1.0093   -4.4511 C   0  0  0  0  0  0  0  0  0  0  0  0
   -1.5978    0.7988   -5.5254 C   0  0  0  0  0  0  0  0  0  0  0  0
   -1.1056    1.9921   -6.1098 C   0  0  0  0  0  0  0  0  0  0  0  0
   -0.1618    2.1144   -7.1460 C   0  0  0  0  0  0  0  0  0  0  0  0
    0.3297    0.9356   -7.8688 C   0  0  0  0  0  0  0  0  0  0  0  0
   -0.5556   -0.0055   -8.3939 C   0  0  0  0  0  0  0  0  0  0  0  0
   -0.0872   -1.1005   -9.0883 C   0  0  0  0  0  0  0  0  0  0  0  0
    1.2773   -1.3081   -9.2778 C   0  0  0  0  0  0  0  0  0  0  0  0
    1.7755   -2.7603  -10.1598 S   0  0  0  0  0  0  0  0  0  0  0  0
    3.1213   -2.1676  -11.2489 C   0  0  0  0  0  0  0  0  0  0  0  0
    2.6688   -1.0312  -12.1428 C   0  0  0  0  0  0  0  0  0  0  0  0
    2.1504   -0.3780   -8.7225 C   0  0  0  0  0  0  0  0  0  0  0  0
    3.4867   -0.5385   -8.8259 F   0  0  0  0  0  0  0  0  0  0  0  0
    1.6948    0.7337   -8.0441 C   0  0  0  0  0  0  0  0  0  0  0  0
    0.2957    3.3947   -7.4202 C   0  0  0  0  0  0  0  0  0  0  0  0
   -0.1655    4.5376   -6.7219 C   0  0  0  0  0  0  0  0  0  0  0  0
   -1.1181    4.4194   -5.6972 C   0  0  0  0  0  0  0  0  0  0  0  0
   -1.5282    5.5987   -4.9246 C   0  0  0  0  0  0  0  0  0  0  0  0
   -0.5649    6.4386   -4.3647 C   0  0  0  0  0  0  0  0  0  0  0  0
   -0.9343    7.5798   -3.6875 C   0  0  0  0  0  0  0  0  0  0  0  0
   -2.2752    7.9242   -3.5314 C   0  0  0  0  0  0  0  0  0  0  0  0
   -2.6307    9.4156   -2.6471 S   0  0  0  0  0  0  0  0  0  0  0  0
   -3.9910   10.1760   -3.6097 C   0  0  0  0  0  0  0  0  0  0  0  0
   -3.5990   10.4126   -5.0543 C   0  0  0  0  0  0  0  0  0  0  0  0
   -3.2266    7.0461   -4.0410 C   0  0  0  0  0  0  0  0  0  0  0  0
   -2.8703    5.9069   -4.7364 C   0  0  0  0  0  0  0  0  0  0  0  0
   -4.5455    7.2900   -3.8821 F   0  0  0  0  0  0  0  0  0  0  0  0
   -1.5770    3.1418   -5.4256 C   0  0  0  0  0  0  0  0  0  0  0  0
   -2.6658    2.7130   -4.1345 S   0  0  0  0  0  0  0  0  0  0  0  0
    0.4550    5.7223   -7.1808 C   0  0  0  0  0  0  0  0  0  0  0  0
    1.3755    5.5190   -8.1645 C   0  0  0  0  0  0  0  0  0  0  0  0
    1.4893    3.8320   -8.6227 S   0  0  0  0  0  0  0  0  0  0  0  0
    2.2292    6.5258   -8.7046 C   0  0  0  0  0  0  0  0  0  0  0  0
    3.1514    6.4639   -9.7045 C   0  0  0  0  0  0  0  0  0  0  0  0
    3.8685    7.6787   -9.8883 C   0  0  0  0  0  0  0  0  0  0  0  0
    4.8608    7.9824  -10.8348 C   0  0  0  0  0  0  0  0  0  0  0  0
    5.3652    6.9657  -11.7645 C   0  0  0  0  0  0  0  0  0  0  0  0
    5.7801    5.7173  -11.3001 C   0  0  0  0  0  0  0  0  0  0  0  0
    6.2769    4.7734  -12.1713 C   0  0  0  0  0  0  0  0  0  0  0  0
    6.3695    5.0253  -13.5404 C   0  0  0  0  0  0  0  0  0  0  0  0
    6.9866    3.7225  -14.5574 S   0  0  0  0  0  0  0  0  0  0  0  0
    7.8347    4.5957  -15.9344 C   0  0  0  0  0  0  0  0  0  0  0  0
    8.8833    3.6738  -16.5246 C   0  0  0  0  0  0  0  0  0  0  0  0
    5.9276    6.2652  -13.9924 C   0  0  0  0  0  0  0  0  0  0  0  0
    5.9371    6.5678  -15.3104 F   0  0  0  0  0  0  0  0  0  0  0  0
    5.4499    7.2284  -13.1272 C   0  0  0  0  0  0  0  0  0  0  0  0
    5.3529    9.2821  -10.8282 C   0  0  0  0  0  0  0  0  0  0  0  0
    4.9309   10.2745   -9.9090 C   0  0  0  0  0  0  0  0  0  0  0  0
    3.9575    9.9672   -8.9524 C   0  0  0  0  0  0  0  0  0  0  0  0
    3.4456   10.9136   -7.9514 C   0  0  0  0  0  0  0  0  0  0  0  0
    2.8769   12.1346   -8.3053 C   0  0  0  0  0  0  0  0  0  0  0  0
    2.2505   12.9154   -7.3557 C   0  0  0  0  0  0  0  0  0  0  0  0
    2.1802   12.5188   -6.0212 C   0  0  0  0  0  0  0  0  0  0  0  0
    1.2865   13.5341   -4.8859 S   0  0  0  0  0  0  0  0  0  0  0  0
    0.4865   12.2894   -3.7894 C   0  0  0  0  0  0  0  0  0  0  0  0
   -0.7928   12.8675   -3.2193 C   0  0  0  0  0  0  0  0  0  0  0  0
    2.8314   11.3401   -5.6685 C   0  0  0  0  0  0  0  0  0  0  0  0
    3.4388   10.5386   -6.6111 C   0  0  0  0  0  0  0  0  0  0  0  0
    2.8823   10.9349   -4.3806 F   0  0  0  0  0  0  0  0  0  0  0  0
    3.4493    8.6773   -8.9780 C   0  0  0  0  0  0  0  0  0  0  0  0
    2.1876    8.0996   -7.9292 S   0  0  0  0  0  0  0  0  0  0  0  0
    5.6447   11.4970  -10.0821 C   0  0  0  0  0  0  0  0  0  0  0  0
    6.5509   11.4365  -11.0781 C   0  0  0  0  0  0  0  0  0  0  0  0
    6.6059    9.9009  -11.8747 S   0  0  0  0  0  0  0  0  0  0  0  0
    2.0068   -5.0114   19.9278 H   0  0  0  0  0  0  0  0  0  0  0  0
    1.1455   -5.7614   17.5706 H   0  0  0  0  0  0  0  0  0  0  0  0
    3.2429   -7.2707   20.5574 H   0  0  0  0  0  0  0  0  0  0  0  0
    5.2323   -5.3341   19.3023 H   0  0  0  0  0  0  0  0  0  0  0  0
    5.0135   -5.6423   21.0377 H   0  0  0  0  0  0  0  0  0  0  0  0
    6.9268   -7.0326   19.7827 H   0  0  0  0  0  0  0  0  0  0  0  0
    5.8010   -7.9365   20.8203 H   0  0  0  0  0  0  0  0  0  0  0  0
    3.4999   -8.6046   16.0866 H   0  0  0  0  0  0  0  0  0  0  0  0
    1.0518   -6.8429   15.5332 H   0  0  0  0  0  0  0  0  0  0  0  0
   -0.0177   -7.2723   13.2023 H   0  0  0  0  0  0  0  0  0  0  0  0
    2.6187  -10.1038   14.0373 H   0  0  0  0  0  0  0  0  0  0  0  0
    4.3921   -7.8849   12.9302 H   0  0  0  0  0  0  0  0  0  0  0  0
    4.7949   -8.9708   14.2724 H   0  0  0  0  0  0  0  0  0  0  0  0
    5.6694   -9.6755   11.8529 H   0  0  0  0  0  0  0  0  0  0  0  0
    4.8342  -10.9176   12.8124 H   0  0  0  0  0  0  0  0  0  0  0  0
    0.9138   -9.0475    9.7737 H   0  0  0  0  0  0  0  0  0  0  0  0
   -1.1506   -7.2614   11.1740 H   0  0  0  0  0  0  0  0  0  0  0  0
   -2.8183   -6.2032    9.5006 H   0  0  0  0  0  0  0  0  0  0  0  0
   -5.1358   -6.6716    8.5771 H   0  0  0  0  0  0  0  0  0  0  0  0
   -6.8373   -5.3719    9.7902 H   0  0  0  0  0  0  0  0  0  0  0  0
   -7.5206   -0.5207    8.7416 H   0  0  0  0  0  0  0  0  0  0  0  0
   -8.1473   -1.7860    7.6542 H   0  0  0  0  0  0  0  0  0  0  0  0
  -10.2639   -1.8665    8.9726 H   0  0  0  0  0  0  0  0  0  0  0  0
   -9.9730   -0.2260    8.3768 H   0  0  0  0  0  0  0  0  0  0  0  0
   -9.6408   -0.6286   10.0659 H   0  0  0  0  0  0  0  0  0  0  0  0
   -3.8929   -3.0948    6.5751 H   0  0  0  0  0  0  0  0  0  0  0  0
    0.2825   -6.5143    3.3996 H   0  0  0  0  0  0  0  0  0  0  0  0
    1.9762   -7.8710    2.2428 H   0  0  0  0  0  0  0  0  0  0  0  0
    2.6404  -12.4282    3.8368 H   0  0  0  0  0  0  0  0  0  0  0  0
    4.1952  -12.1800    3.0212 H   0  0  0  0  0  0  0  0  0  0  0  0
    4.3839  -11.5942    5.4440 H   0  0  0  0  0  0  0  0  0  0  0  0
    4.6205  -10.1602    4.4348 H   0  0  0  0  0  0  0  0  0  0  0  0
    3.0851  -10.4124    5.2711 H   0  0  0  0  0  0  0  0  0  0  0  0
   -1.1103  -10.0347    5.4042 H   0  0  0  0  0  0  0  0  0  0  0  0
   -1.9010   -6.6885    2.4397 H   0  0  0  0  0  0  0  0  0  0  0  0
   -4.7620   -2.8614    2.2131 H   0  0  0  0  0  0  0  0  0  0  0  0
   -4.0725    1.0908    0.4310 H   0  0  0  0  0  0  0  0  0  0  0  0
   -5.6766    2.4434    1.7000 H   0  0  0  0  0  0  0  0  0  0  0  0
   -9.8747    1.0095    1.5393 H   0  0  0  0  0  0  0  0  0  0  0  0
  -10.0122    0.4714    3.2331 H   0  0  0  0  0  0  0  0  0  0  0  0
  -11.8316    2.0892    2.6784 H   0  0  0  0  0  0  0  0  0  0  0  0
  -10.7402    2.7740    3.8890 H   0  0  0  0  0  0  0  0  0  0  0  0
  -10.6236    3.2924    2.2060 H   0  0  0  0  0  0  0  0  0  0  0  0
   -6.7158   -2.2664    0.7528 H   0  0  0  0  0  0  0  0  0  0  0  0
   -3.1040   -5.7869   -2.6220 H   0  0  0  0  0  0  0  0  0  0  0  0
   -1.7046   -7.1851   -4.0850 H   0  0  0  0  0  0  0  0  0  0  0  0
    1.8451   -6.3689   -7.4056 H   0  0  0  0  0  0  0  0  0  0  0  0
    2.0928   -5.0128   -6.2917 H   0  0  0  0  0  0  0  0  0  0  0  0
   -0.2569   -4.2454   -6.7142 H   0  0  0  0  0  0  0  0  0  0  0  0
   -0.5192   -5.6300   -7.7801 H   0  0  0  0  0  0  0  0  0  0  0  0
    0.6306   -4.3652   -8.2362 H   0  0  0  0  0  0  0  0  0  0  0  0
   -0.1710   -2.6761   -2.8596 H   0  0  0  0  0  0  0  0  0  0  0  0
   -1.8769   -1.7388   -4.1938 H   0  0  0  0  0  0  0  0  0  0  0  0
   -1.3148   -0.1800   -5.8659 H   0  0  0  0  0  0  0  0  0  0  0  0
   -1.6191    0.1431   -8.2839 H   0  0  0  0  0  0  0  0  0  0  0  0
   -0.7761   -1.8188   -9.5051 H   0  0  0  0  0  0  0  0  0  0  0  0
    3.3750   -3.0523  -11.8330 H   0  0  0  0  0  0  0  0  0  0  0  0
    3.9755   -1.8904  -10.6352 H   0  0  0  0  0  0  0  0  0  0  0  0
    3.4715   -0.7627  -12.8265 H   0  0  0  0  0  0  0  0  0  0  0  0
    2.4115   -0.1517  -11.5548 H   0  0  0  0  0  0  0  0  0  0  0  0
    1.7972   -1.3254  -12.7241 H   0  0  0  0  0  0  0  0  0  0  0  0
    2.4188    1.4161   -7.6276 H   0  0  0  0  0  0  0  0  0  0  0  0
    0.4807    6.1879   -4.4573 H   0  0  0  0  0  0  0  0  0  0  0  0
   -0.1851    8.2337   -3.2683 H   0  0  0  0  0  0  0  0  0  0  0  0
   -4.8770    9.5508   -3.5244 H   0  0  0  0  0  0  0  0  0  0  0  0
   -4.1695   11.1178   -3.0908 H   0  0  0  0  0  0  0  0  0  0  0  0
   -4.4015   10.9360   -5.5701 H   0  0  0  0  0  0  0  0  0  0  0  0
   -2.6946   11.0145   -5.1119 H   0  0  0  0  0  0  0  0  0  0  0  0
   -3.4192    9.4695   -5.5675 H   0  0  0  0  0  0  0  0  0  0  0  0
   -3.6499    5.2753   -5.1333 H   0  0  0  0  0  0  0  0  0  0  0  0
    0.2296    6.7000   -6.7946 H   0  0  0  0  0  0  0  0  0  0  0  0
    3.3037    5.5820  -10.3009 H   0  0  0  0  0  0  0  0  0  0  0  0
    5.7434    5.5017  -10.2432 H   0  0  0  0  0  0  0  0  0  0  0  0
    6.6099    3.8144  -11.8060 H   0  0  0  0  0  0  0  0  0  0  0  0
    7.0891    4.8722  -16.6784 H   0  0  0  0  0  0  0  0  0  0  0  0
    8.2892    5.4920  -15.5152 H   0  0  0  0  0  0  0  0  0  0  0  0
    8.4219    2.7663  -16.9076 H   0  0  0  0  0  0  0  0  0  0  0  0
    9.6164    3.3958  -15.7706 H   0  0  0  0  0  0  0  0  0  0  0  0
    9.3947    4.1769  -17.3424 H   0  0  0  0  0  0  0  0  0  0  0  0
    5.1153    8.1686  -13.5367 H   0  0  0  0  0  0  0  0  0  0  0  0
    2.8830   12.4474   -9.3385 H   0  0  0  0  0  0  0  0  0  0  0  0
    1.7776   13.8433   -7.6375 H   0  0  0  0  0  0  0  0  0  0  0  0
    1.1852   12.0294   -2.9960 H   0  0  0  0  0  0  0  0  0  0  0  0
    0.2822   11.4125   -4.4027 H   0  0  0  0  0  0  0  0  0  0  0  0
   -1.4661   13.1721   -4.0180 H   0  0  0  0  0  0  0  0  0  0  0  0
   -0.5783   13.7363   -2.6017 H   0  0  0  0  0  0  0  0  0  0  0  0
   -1.2866   12.1152   -2.6073 H   0  0  0  0  0  0  0  0  0  0  0  0
    3.9170    9.6282   -6.2849 H   0  0  0  0  0  0  0  0  0  0  0  0
    5.4797   12.3651   -9.4698 H   0  0  0  0  0  0  0  0  0  0  0  0
    7.2135   12.2094  -11.4154 H   0  0  0  0  0  0  0  0  0  0  0  0
  1  2  2  0  0  0  0
  2  3  1  0  0  0  0
  3  4  2  0  0  0  0
  4  5  1  0  0  0  0
  5  6  1  0  0  0  0
  6  7  1  0  0  0  0
  7  8  1  0  0  0  0
  3  9  1  0  0  0  0
  9 10  2  0  0  0  0
 10 11  1  0  0  0  0
 11 12  2  0  0  0  0
 12 13  1  0  0  0  0
 13 14  2  0  0  0  0
 14 15  1  0  0  0  0
 15 16  1  0  0  0  0
 16 17  1  0  0  0  0
 17 18  1  0  0  0  0
 13 19  1  0  0  0  0
 19 20  2  0  0  0  0
 20 21  1  0  0  0  0
 21 22  2  0  0  0  0
 22 23  1  0  0  0  0
 23 24  2  0  0  0  0
 24 25  1  0  0  0  0
 25 26  2  0  0  0  0
 26 27  1  0  0  0  0
 27 28  2  0  0  0  0
 28 29  1  0  0  0  0
 29 30  1  0  0  0  0
 30 31  1  0  0  0  0
 28 32  1  0  0  0  0
 32 33  1  0  0  0  0
 32 34  2  0  0  0  0
 24 35  1  0  0  0  0
 35 36  2  0  0  0  0
 36 37  1  0  0  0  0
 37 38  1  0  0  0  0
 38 39  2  0  0  0  0
 39 40  1  0  0  0  0
 40 41  2  0  0  0  0
 41 42  1  0  0  0  0
 42 43  1  0  0  0  0
 43 44  1  0  0  0  0
 41 45  1  0  0  0  0
 45 46  2  0  0  0  0
 45 47  1  0  0  0  0
 37 48  2  0  0  0  0
 48 49  1  0  0  0  0
 36 50  1  0  0  0  0
 50 51  2  0  0  0  0
 51 52  1  0  0  0  0
 51 53  1  0  0  0  0
 53 54  2  0  0  0  0
 54 55  1  0  0  0  0
 55 56  2  0  0  0  0
 56 57  1  0  0  0  0
 57 58  2  0  0  0  0
 58 59  1  0  0  0  0
 59 60  2  0  0  0  0
 60 61  1  0  0  0  0
 61 62  1  0  0  0  0
 62 63  1  0  0  0  0
 60 64  1  0  0  0  0
 64 65  1  0  0  0  0
 64 66  2  0  0  0  0
 56 67  1  0  0  0  0
 67 68  2  0  0  0  0
 68 69  1  0  0  0  0
 69 70  1  0  0  0  0
 70 71  2  0  0  0  0
 71 72  1  0  0  0  0
 72 73  2  0  0  0  0
 73 74  1  0  0  0  0
 74 75  1  0  0  0  0
 75 76  1  0  0  0  0
 73 77  1  0  0  0  0
 77 78  2  0  0  0  0
 77 79  1  0  0  0  0
 69 80  2  0  0  0  0
 80 81  1  0  0  0  0
 68 82  1  0  0  0  0
 82 83  2  0  0  0  0
 83 84  1  0  0  0  0
 83 85  1  0  0  0  0
 85 86  2  0  0  0  0
 86 87  1  0  0  0  0
 87 88  2  0  0  0  0
 88 89  1  0  0  0  0
 89 90  2  0  0  0  0
 90 91  1  0  0  0  0
 91 92  2  0  0  0  0
 92 93  1  0  0  0  0
 93 94  1  0  0  0  0
 94 95  1  0  0  0  0
 92 96  1  0  0  0  0
 96 97  1  0  0  0  0
 96 98  2  0  0  0  0
 88 99  1  0  0  0  0
 99100  2  0  0  0  0
100101  1  0  0  0  0
101102  1  0  0  0  0
102103  2  0  0  0  0
103104  1  0  0  0  0
104105  2  0  0  0  0
105106  1  0  0  0  0
106107  1  0  0  0  0
107108  1  0  0  0  0
105109  1  0  0  0  0
109110  2  0  0  0  0
109111  1  0  0  0  0
101112  2  0  0  0  0
112113  1  0  0  0  0
100114  1  0  0  0  0
114115  2  0  0  0  0
115116  1  0  0  0  0
115117  1  0  0  0  0
117118  2  0  0  0  0
118119  1  0  0  0  0
119120  2  0  0  0  0
120121  1  0  0  0  0
121122  2  0  0  0  0
122123  1  0  0  0  0
123124  2  0  0  0  0
124125  1  0  0  0  0
125126  1  0  0  0  0
126127  1  0  0  0  0
124128  1  0  0  0  0
128129  1  0  0  0  0
128130  2  0  0  0  0
120131  1  0  0  0  0
131132  2  0  0  0  0
132133  1  0  0  0  0
133134  1  0  0  0  0
134135  2  0  0  0  0
135136  1  0  0  0  0
136137  2  0  0  0  0
137138  1  0  0  0  0
138139  1  0  0  0  0
139140  1  0  0  0  0
137141  1  0  0  0  0
141142  2  0  0  0  0
141143  1  0  0  0  0
133144  2  0  0  0  0
144145  1  0  0  0  0
132146  1  0  0  0  0
146147  2  0  0  0  0
147148  1  0  0  0  0
  5  1  1  0  0  0  0
 15 11  1  0  0  0  0
 49 21  1  0  0  0  0
 81 53  1  0  0  0  0
113 85  1  0  0  0  0
145117  1  0  0  0  0
  8  4  1  0  0  0  0
 18 14  1  0  0  0  0
 48 23  1  0  0  0  0
 80 55  1  0  0  0  0
112 87  1  0  0  0  0
144119  1  0  0  0  0
 34 25  1  0  0  0  0
 52 35  1  0  0  0  0
 66 57  1  0  0  0  0
 84 67  1  0  0  0  0
 98 89  1  0  0  0  0
116 99  1  0  0  0  0
130121  1  0  0  0  0
148131  1  0  0  0  0
 46 38  1  0  0  0  0
 78 70  1  0  0  0  0
110102  1  0  0  0  0
142134  1  0  0  0  0
  1149  1  0  0  0  0
  2150  1  0  0  0  0
  5151  1  0  0  0  0
  6152  1  0  0  0  0
  6153  1  0  0  0  0
  7154  1  0  0  0  0
  7155  1  0  0  0  0
  9156  1  0  0  0  0
 10157  1  0  0  0  0
 12158  1  0  0  0  0
 15159  1  0  0  0  0
 16160  1  0  0  0  0
 16161  1  0  0  0  0
 17162  1  0  0  0  0
 17163  1  0  0  0  0
 19164  1  0  0  0  0
 20165  1  0  0  0  0
 22166  1  0  0  0  0
 26167  1  0  0  0  0
 27168  1  0  0  0  0
 30169  1  0  0  0  0
 30170  1  0  0  0  0
 31171  1  0  0  0  0
 31172  1  0  0  0  0
 31173  1  0  0  0  0
 34174  1  0  0  0  0
 39175  1  0  0  0  0
 40176  1  0  0  0  0
 43177  1  0  0  0  0
 43178  1  0  0  0  0
 44179  1  0  0  0  0
 44180  1  0  0  0  0
 44181  1  0  0  0  0
 46182  1  0  0  0  0
 50183  1  0  0  0  0
 54184  1  0  0  0  0
 58185  1  0  0  0  0
 59186  1  0  0  0  0
 62187  1  0  0  0  0
 62188  1  0  0  0  0
 63189  1  0  0  0  0
 63190  1  0  0  0  0
 63191  1  0  0  0  0
 66192  1  0  0  0  0
 71193  1  0  0  0  0
 72194  1  0  0  0  0
 75195  1  0  0  0  0
 75196  1  0  0  0  0
 76197  1  0  0  0  0
 76198  1  0  0  0  0
 76199  1  0  0  0  0
 78200  1  0  0  0  0
 82201  1  0  0  0  0
 86202  1  0  0  0  0
 90203  1  0  0  0  0
 91204  1  0  0  0  0
 94205  1  0  0  0  0
 94206  1  0  0  0  0
 95207  1  0  0  0  0
 95208  1  0  0  0  0
 95209  1  0  0  0  0
 98210  1  0  0  0  0
103211  1  0  0  0  0
104212  1  0  0  0  0
107213  1  0  0  0  0
107214  1  0  0  0  0
108215  1  0  0  0  0
108216  1  0  0  0  0
108217  1  0  0  0  0
110218  1  0  0  0  0
114219  1  0  0  0  0
118220  1  0  0  0  0
122221  1  0  0  0  0
123222  1  0  0  0  0
126223  1  0  0  0  0
126224  1  0  0  0  0
127225  1  0  0  0  0
127226  1  0  0  0  0
127227  1  0  0  0  0
130228  1  0  0  0  0
135229  1  0  0  0  0
136230  1  0  0  0  0
139231  1  0  0  0  0
139232  1  0  0  0  0
140233  1  0  0  0  0
140234  1  0  0  0  0
140235  1  0  0  0  0
142236  1  0  0  0  0
146237  1  0  0  0  0
147238  1  0  0  0  0
M  END
