230

C          1.92790       -9.42320        6.11890
C          2.25120       -8.85590        4.93910
C          1.14450       -8.21030        4.31400
C          1.11770       -7.49650        3.10560
C          2.32930       -7.11600        2.40190
S          2.45710       -7.18370        0.66760
C          3.99580       -6.39420        0.66580
C          4.67670       -6.01780       -0.60280
C          4.24480       -4.61550       -1.04060
C          4.37900       -6.10860        1.94120
Cl         5.82250       -5.27880        2.33840
C          3.44690       -6.52330        2.92790
Cl         3.68590       -6.18420        4.58660
C         -0.13130       -7.07170        2.66070
C         -1.31480       -7.20790        3.42270
C         -1.27360       -7.86430        4.66270
C         -2.46720       -8.01540        5.48050
S         -3.39130       -6.63480        5.99510
C         -4.52010       -7.61620        6.86540
C         -5.63340       -7.00910        7.64550
C         -5.16720       -6.61510        9.04920
C         -4.18420       -8.93240        6.75730
C         -3.02420       -9.16340        5.97000
Cl        -2.45550      -10.73990        5.61290
Cl        -5.07110      -10.20880        7.48390
C         -0.04390       -8.37150        5.06730
S          0.26510       -9.23000        6.54910
C         -2.44390       -6.64520        2.76380
C         -2.15270       -6.13960        1.53930
S         -0.45070       -6.28800        1.14290
C         -2.99840       -5.52180        0.55510
C         -2.93970       -5.73490       -0.78640
C         -3.80430       -4.89530       -1.53270
C         -3.89010       -4.78760       -2.93170
C         -3.13510       -5.67980       -3.80040
S         -3.36690       -7.40130       -3.71810
C         -2.21330       -7.69650       -4.97330
C         -1.86270       -9.08100       -5.39350
C         -0.74450       -9.64850       -4.51540
C         -1.67940       -6.52130       -5.40940
Cl        -0.48920       -6.41390       -6.64020
C         -2.20130       -5.37470       -4.75110
Cl        -1.62790       -3.79240       -5.08080
C         -4.66410       -3.75430       -3.43450
C         -5.34470       -2.83140       -2.60080
C         -5.24910       -2.93350       -1.20320
C         -5.77130       -1.86840       -0.35860
S         -6.89840       -2.15060        0.93060
C         -6.96490       -0.47030        1.34300
C         -7.86760        0.02740        2.41700
C         -9.26420        0.32240        1.86450
C         -6.15450        0.25340        0.51980
C         -5.46520       -0.53660       -0.43790
Cl        -4.31110        0.13210       -1.52140
Cl        -5.97510        1.95740        0.60250
C         -4.50400       -3.99090       -0.69810
S         -4.14650       -4.27120        0.98500
C         -5.91800       -1.77250       -3.34430
C         -5.60810       -1.81240       -4.67400
S         -4.79910       -3.30880       -5.11250
C         -5.45150       -0.66050       -5.50210
C         -4.55900       -0.55840       -6.53050
C         -4.02450        0.74560       -6.68260
C         -2.81150        1.05610       -7.32850
C         -2.21500        0.09190       -8.23140
S         -0.56990       -0.44580       -8.06660
C         -0.72720       -1.57060       -9.37050
C          0.38710       -2.48850       -9.73200
C          0.32340       -3.76490       -8.88940
C         -1.98450       -1.52000       -9.89650
Cl        -2.51080       -2.48690      -11.21290
C         -2.83170       -0.58190       -9.25210
Cl        -4.44610       -0.29140       -9.75510
C         -2.17020        2.21620       -6.91370
C         -2.75440        3.13490       -6.00680
C         -4.01510        2.87290       -5.43760
C         -4.55330        3.66830       -4.34690
S         -3.57480        4.06160       -2.95990
C         -4.90280        4.78910       -2.12350
C         -4.70540        5.43070       -0.79530
C         -3.98910        6.77570       -0.93650
C         -6.03160        4.72030       -2.88340
C         -5.84190        4.07270       -4.13460
Cl        -7.10140        3.89640       -5.28280
Cl        -7.55410        5.34240       -2.39540
C         -4.60480        1.66110       -5.77200
S         -5.88520        0.91450       -4.85400
C         -1.83220        4.12610       -5.59660
C         -0.56840        3.91740       -6.06780
S         -0.49680        2.60420       -7.21780
C          0.58410        4.41710       -5.37250
C          0.69970        5.59670       -4.70280
C          1.65690        5.55950       -3.65720
C          1.93070        6.55270       -2.70060
C          1.26090        7.84260       -2.72040
S         -0.47650        7.95440       -2.77620
C         -0.45230        9.68210       -2.67060
C         -1.71640       10.46610       -2.61670
C         -2.28700       10.48620       -1.19670
C          0.83170       10.12980       -2.59150
Cl         1.26210       11.78710       -2.47760
C          1.80370        9.09210       -2.61870
Cl         3.48740        9.40980       -2.59950
C          2.78220        6.20610       -1.65950
C          3.33720        4.90960       -1.51320
C          3.06130        3.91320       -2.46950
C          3.44850        2.53080       -2.23060
S          5.08060        2.08950       -1.81910
C          4.66690        0.42850       -1.57960
C          5.65770       -0.57340       -1.09720
C          5.49260       -0.81350        0.40640
C          3.33890        0.23940       -1.81670
C          2.64360        1.42300       -2.18000
Cl         0.94100        1.41990       -2.40130
Cl         2.56370       -1.28550       -1.69020
C          2.26430        4.28240       -3.54560
S          1.75930        3.23010       -4.83410
C          3.98590        4.75260       -0.26880
C          3.92790        5.85790        0.53180
S          3.11270        7.19080       -0.26330
C          4.32740        5.94330        1.89220
C          4.82500        4.92560        2.64770
C          4.94150        5.30790        4.03250
C          4.55260        6.61460        4.11530
C          4.02530        7.10100        2.80020
C          4.65330        8.47790        2.61550
C          4.46310        9.15980        3.96770
S          4.77090        7.87940        5.26100
C          5.41950        4.48600        5.11280
C          5.27810        3.15540        5.25390
C          4.51850        2.21750        4.47400
C          4.67420        0.86290        4.54070
C          3.77740        0.13140        3.72270
C          3.66000       -1.26150        3.59910
C          4.48810       -2.15550        4.39610
S          6.22090       -2.17160        4.27600
C          6.37480       -3.34740        5.53680
C          7.70240       -3.87440        5.95820
C          8.04560       -5.16690        5.21440
C          5.14530       -3.70280        6.00450
Cl         4.90120       -4.82170        7.28250
C          4.07290       -3.03300        5.35620
Cl         2.42860       -3.25820        5.79020
C          2.69580       -1.73800        2.72250
C          1.83700       -0.88960        1.98270
C          1.89980        0.50280        2.16680
C          0.96850        1.39400        1.49880
S          1.51900        2.83670        0.69460
C         -0.07980        3.26340        0.18900
C         -0.34350        4.50720       -0.58350
C         -0.32270        5.72980        0.33470
C         -0.97820        2.35030        0.65110
C         -0.39210        1.28910        1.39130
Cl        -1.34910        0.07780        2.14620
Cl        -2.66430        2.44480        0.37150
C          2.88860        0.98000        3.02160
S          3.18010        2.65110        3.41830
C          1.01590       -1.63740        1.08770
C          1.22310       -2.96690        1.16740
S          2.42520       -3.41190        2.32890
H          2.56860       -9.96730        6.78490
H          3.23140       -8.90730        4.50280
H          4.42410       -6.73930       -1.38110
H          5.75700       -6.03370       -0.44450
H          3.17160       -4.58610       -1.21250
H          4.49070       -3.88820       -0.27090
H          4.75190       -4.33840       -1.96100
H         -6.44410       -7.73620        7.72090
H         -6.00200       -6.12460        7.12310
H         -5.99160       -6.18000        9.60770
H         -4.36240       -5.88650        8.98880
H         -4.80580       -7.48910        9.58500
H         -3.43710       -6.64730        3.17450
H         -2.28330       -6.46140       -1.23050
H         -1.53430       -9.05930       -6.43430
H         -2.74490       -9.71850       -5.31700
H          0.14410       -9.02670       -4.58910
H         -1.06040       -9.68150       -3.47540
H         -0.49320      -10.65570       -4.83600
H         -7.93860       -0.72250        3.20640
H         -7.44110        0.94050        2.83690
H         -9.20860        1.07810        1.08520
H         -9.91030        0.68720        2.65840
H         -9.70190       -0.57990        1.44420
H         -6.45130       -0.95140       -2.90190
H         -4.16650       -1.42030       -7.03990
H          0.30670       -2.74380      -10.79020
H          1.34060       -1.98600       -9.56170
H          0.39600       -3.52250       -7.83200
H         -0.61610       -4.28390       -9.06240
H          1.14190       -4.42990       -9.15240
H         -5.68160        5.57690       -0.33020
H         -4.11260        4.77070       -0.15920
H         -3.83490        7.21720        0.04460
H         -3.02260        6.64090       -1.41810
H         -4.58530        7.45820       -1.53730
H         -2.05680        4.89660       -4.88330
H          0.08430        6.44920       -4.92070
H         -1.50880       11.48630       -2.94370
H         -2.44820       10.02260       -3.29430
H         -1.57490       10.93900       -0.51130
H         -3.20770       11.06230       -1.17320
H         -2.49920        9.47360       -0.86210
H          6.66700       -0.21740       -1.30600
H          5.49830       -1.51330       -1.63040
H          5.65520        0.10730        0.96150
H          4.48870       -1.16950        0.62170
H          6.20740       -1.55550        0.75180
H          4.44020        3.83550        0.05010
H          5.16420        3.98060        2.26980
H          2.93520        7.21820        2.86710
H          5.71530        8.36930        2.38820
H          4.17730        9.05190        1.82110
H          3.43900        9.51190        4.09570
H          5.15300        9.98220        4.14170
H          5.93480        5.02830        5.89680
H          5.77510        2.68900        6.09640
H          5.42630        0.39480        5.14980
H          7.67320       -4.07250        7.03200
H          8.46900       -3.12340        5.76060
H          9.00200       -5.55240        5.55730
H          8.10580       -4.98340        4.14460
H          7.28090       -5.91810        5.39450
H          0.41580        4.62050       -1.35810
H         -1.31750        4.42010       -1.06940
H          0.63840        5.80090        0.83910
H         -0.48260        6.63530       -0.24360
H         -1.10400        5.64980        1.08630
H          0.32360       -1.18920        0.40000
H          0.74220       -3.74570        0.60790
