
  xtb     03022223183D
 energy: -449.137525772730 gnorm: 0.000498138847 xtb: 6.4.1 (unknown)
226252  0     0  0            999 V2000
    1.9726  -17.5520    5.4848 C   0  0  0  0  0  0  0  0  0  0  0  0
    2.5972  -16.7044    4.6427 C   0  0  0  0  0  0  0  0  0  0  0  0
    1.6906  -15.8706    3.9252 C   0  0  0  0  0  0  0  0  0  0  0  0
    1.9808  -14.8973    2.9566 C   0  0  0  0  0  0  0  0  0  0  0  0
    3.3457  -14.5071    2.6447 C   0  0  0  0  0  0  0  0  0  0  0  0
    3.9230  -14.4335    1.0073 S   0  0  0  0  0  0  0  0  0  0  0  0
    5.4755  -13.8467    1.4981 C   0  0  0  0  0  0  0  0  0  0  0  0
    6.5109  -13.4861    0.4912 C   0  0  0  0  0  0  0  0  0  0  0  0
    6.2070  -12.1211   -0.1316 C   0  0  0  0  0  0  0  0  0  0  0  0
    5.5262  -13.7168    2.8538 C   0  0  0  0  0  0  0  0  0  0  0  0
    6.9000  -13.1513    3.7134 Cl  0  0  0  0  0  0  0  0  0  0  0  0
    4.3226  -14.0940    3.5081 C   0  0  0  0  0  0  0  0  0  0  0  0
    4.1114  -13.9477    5.2053 Cl  0  0  0  0  0  0  0  0  0  0  0  0
    0.9000  -14.2834    2.3370 C   0  0  0  0  0  0  0  0  0  0  0  0
   -0.4467  -14.5566    2.6784 C   0  0  0  0  0  0  0  0  0  0  0  0
   -0.7364  -15.5211    3.6582 C   0  0  0  0  0  0  0  0  0  0  0  0
   -2.1075  -15.8453    4.0126 C   0  0  0  0  0  0  0  0  0  0  0  0
   -2.6440  -15.8251    5.6660 S   0  0  0  0  0  0  0  0  0  0  0  0
   -4.2533  -16.2873    5.2312 C   0  0  0  0  0  0  0  0  0  0  0  0
   -5.3244  -16.4083    6.2581 C   0  0  0  0  0  0  0  0  0  0  0  0
   -5.9573  -15.0459    6.5518 C   0  0  0  0  0  0  0  0  0  0  0  0
   -4.3542  -16.4402    3.8804 C   0  0  0  0  0  0  0  0  0  0  0  0
   -3.1397  -16.1949    3.1859 C   0  0  0  0  0  0  0  0  0  0  0  0
   -2.9891  -16.4061    1.4887 Cl  0  0  0  0  0  0  0  0  0  0  0  0
   -5.7986  -16.8970    3.0742 Cl  0  0  0  0  0  0  0  0  0  0  0  0
    0.3454  -16.1513    4.2620 C   0  0  0  0  0  0  0  0  0  0  0  0
    0.2488  -17.4070    5.4648 S   0  0  0  0  0  0  0  0  0  0  0  0
   -1.3493  -13.7243    1.9689 C   0  0  0  0  0  0  0  0  0  0  0  0
   -0.7345  -12.8765    1.0976 C   0  0  0  0  0  0  0  0  0  0  0  0
    1.0100  -13.0436    1.1219 S   0  0  0  0  0  0  0  0  0  0  0  0
   -1.3283  -11.8988    0.2478 C   0  0  0  0  0  0  0  0  0  0  0  0
   -0.6846  -11.0811   -0.6329 C   0  0  0  0  0  0  0  0  0  0  0  0
   -1.5421  -10.1600   -1.2790 C   0  0  0  0  0  0  0  0  0  0  0  0
   -1.1983   -9.1412   -2.1841 C   0  0  0  0  0  0  0  0  0  0  0  0
    0.1852   -8.8534   -2.5243 C   0  0  0  0  0  0  0  0  0  0  0  0
    0.7031   -8.6963   -4.1762 S   0  0  0  0  0  0  0  0  0  0  0  0
    2.3258   -8.3145   -3.7141 C   0  0  0  0  0  0  0  0  0  0  0  0
    3.3898   -8.0954   -4.7323 C   0  0  0  0  0  0  0  0  0  0  0  0
    4.0237   -9.4224   -5.1563 C   0  0  0  0  0  0  0  0  0  0  0  0
    2.4444   -8.3175   -2.3561 C   0  0  0  0  0  0  0  0  0  0  0  0
    3.9066   -7.9753   -1.5233 Cl  0  0  0  0  0  0  0  0  0  0  0  0
    1.2331   -8.6162   -1.6771 C   0  0  0  0  0  0  0  0  0  0  0  0
    1.1085   -8.5852    0.0352 Cl  0  0  0  0  0  0  0  0  0  0  0  0
   -2.2384   -8.3740   -2.6871 C   0  0  0  0  0  0  0  0  0  0  0  0
   -3.5885   -8.5376   -2.2926 C   0  0  0  0  0  0  0  0  0  0  0  0
   -3.9260   -9.5355   -1.3617 C   0  0  0  0  0  0  0  0  0  0  0  0
   -5.2941   -9.7018   -0.8976 C   0  0  0  0  0  0  0  0  0  0  0  0
   -6.1117  -11.2294   -1.0288 S   0  0  0  0  0  0  0  0  0  0  0  0
   -7.5592  -10.6033   -0.3188 C   0  0  0  0  0  0  0  0  0  0  0  0
   -8.7783  -11.4460   -0.1751 C   0  0  0  0  0  0  0  0  0  0  0  0
   -9.6506  -11.3608   -1.4300 C   0  0  0  0  0  0  0  0  0  0  0  0
   -7.4032   -9.2856   -0.0067 C   0  0  0  0  0  0  0  0  0  0  0  0
   -6.1189   -8.7719   -0.3285 C   0  0  0  0  0  0  0  0  0  0  0  0
   -5.6466   -7.1634    0.0465 Cl  0  0  0  0  0  0  0  0  0  0  0  0
   -8.6263   -8.3228    0.7163 Cl  0  0  0  0  0  0  0  0  0  0  0  0
   -2.8935  -10.3350   -0.8913 C   0  0  0  0  0  0  0  0  0  0  0  0
   -3.0549  -11.6043    0.2905 S   0  0  0  0  0  0  0  0  0  0  0  0
   -4.4395   -7.5715   -2.8842 C   0  0  0  0  0  0  0  0  0  0  0  0
   -3.7835   -6.6840   -3.6858 C   0  0  0  0  0  0  0  0  0  0  0  0
   -2.0621   -7.0388   -3.7823 S   0  0  0  0  0  0  0  0  0  0  0  0
   -4.2109   -5.4398   -4.2406 C   0  0  0  0  0  0  0  0  0  0  0  0
   -3.0042   -4.2021   -4.2266 S   0  0  0  0  0  0  0  0  0  0  0  0
   -4.1239   -2.9645   -4.6715 C   0  0  0  0  0  0  0  0  0  0  0  0
   -5.3960   -3.5052   -4.8781 C   0  0  0  0  0  0  0  0  0  0  0  0
   -5.4403   -4.9281   -4.6620 C   0  0  0  0  0  0  0  0  0  0  0  0
   -6.6492   -5.6125   -4.9555 C   0  0  0  0  0  0  0  0  0  0  0  0
   -6.7063   -7.3782   -4.9297 S   0  0  0  0  0  0  0  0  0  0  0  0
   -7.7554   -4.8958   -5.3359 C   0  0  0  0  0  0  0  0  0  0  0  0
   -7.7127   -3.4991   -5.4735 C   0  0  0  0  0  0  0  0  0  0  0  0
   -6.5540   -2.8072   -5.2716 C   0  0  0  0  0  0  0  0  0  0  0  0
   -3.6281   -1.6340   -4.6638 C   0  0  0  0  0  0  0  0  0  0  0  0
   -2.2983   -1.3261   -4.5587 C   0  0  0  0  0  0  0  0  0  0  0  0
   -2.0345    0.0420   -4.3521 C   0  0  0  0  0  0  0  0  0  0  0  0
   -0.7842    0.6532   -4.1441 C   0  0  0  0  0  0  0  0  0  0  0  0
    0.4364   -0.1350   -4.1289 C   0  0  0  0  0  0  0  0  0  0  0  0
    0.5571   -1.5724   -3.1526 S   0  0  0  0  0  0  0  0  0  0  0  0
    2.1757   -1.8936   -3.6748 C   0  0  0  0  0  0  0  0  0  0  0  0
    2.8987   -3.1074   -3.2036 C   0  0  0  0  0  0  0  0  0  0  0  0
    2.1967   -4.3902   -3.6536 C   0  0  0  0  0  0  0  0  0  0  0  0
    2.5884   -0.9280   -4.5430 C   0  0  0  0  0  0  0  0  0  0  0  0
    4.1360   -0.9000   -5.2842 Cl  0  0  0  0  0  0  0  0  0  0  0  0
    1.6109    0.0739   -4.7963 C   0  0  0  0  0  0  0  0  0  0  0  0
    1.8747    1.3535   -5.9045 Cl  0  0  0  0  0  0  0  0  0  0  0  0
   -0.7941    2.0160   -3.8798 C   0  0  0  0  0  0  0  0  0  0  0  0
   -1.9865    2.7822   -3.8310 C   0  0  0  0  0  0  0  0  0  0  0  0
   -3.2279    2.1812   -4.1210 C   0  0  0  0  0  0  0  0  0  0  0  0
   -4.4489    2.9647   -4.1535 C   0  0  0  0  0  0  0  0  0  0  0  0
   -5.8797    2.4627   -3.3025 S   0  0  0  0  0  0  0  0  0  0  0  0
   -6.7749    3.8451   -3.8320 C   0  0  0  0  0  0  0  0  0  0  0  0
   -8.2087    4.0185   -3.4710 C   0  0  0  0  0  0  0  0  0  0  0  0
   -9.1112    3.2831   -4.4647 C   0  0  0  0  0  0  0  0  0  0  0  0
   -6.0023    4.6327   -4.6327 C   0  0  0  0  0  0  0  0  0  0  0  0
   -4.6822    4.1410   -4.8135 C   0  0  0  0  0  0  0  0  0  0  0  0
   -3.5420    4.9198   -5.8343 Cl  0  0  0  0  0  0  0  0  0  0  0  0
   -6.5507    6.0884   -5.3581 Cl  0  0  0  0  0  0  0  0  0  0  0  0
   -3.2230    0.8118   -4.3415 C   0  0  0  0  0  0  0  0  0  0  0  0
   -4.6261   -0.1928   -4.6057 S   0  0  0  0  0  0  0  0  0  0  0  0
   -1.7476    4.0963   -3.3627 C   0  0  0  0  0  0  0  0  0  0  0  0
   -0.4342    4.3441   -3.0836 C   0  0  0  0  0  0  0  0  0  0  0  0
    0.5868    2.9643   -3.4200 S   0  0  0  0  0  0  0  0  0  0  0  0
    0.1326    5.5156   -2.4955 C   0  0  0  0  0  0  0  0  0  0  0  0
   -0.5265    6.5363   -1.8724 C   0  0  0  0  0  0  0  0  0  0  0  0
    0.3393    7.4838   -1.2758 C   0  0  0  0  0  0  0  0  0  0  0  0
   -0.0045    8.6357   -0.5464 C   0  0  0  0  0  0  0  0  0  0  0  0
   -1.3894    9.0060   -0.3053 C   0  0  0  0  0  0  0  0  0  0  0  0
   -2.5185    7.8960    0.4153 S   0  0  0  0  0  0  0  0  0  0  0  0
   -3.7999    9.0586    0.3926 C   0  0  0  0  0  0  0  0  0  0  0  0
   -5.1388    8.7478    0.9646 C   0  0  0  0  0  0  0  0  0  0  0  0
   -5.1805    9.0728    2.4598 C   0  0  0  0  0  0  0  0  0  0  0  0
   -3.3620   10.2335   -0.1411 C   0  0  0  0  0  0  0  0  0  0  0  0
   -4.3506   11.6222   -0.3330 Cl  0  0  0  0  0  0  0  0  0  0  0  0
   -1.9986   10.2076   -0.5399 C   0  0  0  0  0  0  0  0  0  0  0  0
   -1.2432   11.5365   -1.3139 Cl  0  0  0  0  0  0  0  0  0  0  0  0
    1.0416    9.3962   -0.0400 C   0  0  0  0  0  0  0  0  0  0  0  0
    2.4045    9.0814   -0.2660 C   0  0  0  0  0  0  0  0  0  0  0  0
    2.7490    7.9417   -1.0125 C   0  0  0  0  0  0  0  0  0  0  0  0
    4.1390    7.5998   -1.2664 C   0  0  0  0  0  0  0  0  0  0  0  0
    5.2172    8.7478   -2.0059 S   0  0  0  0  0  0  0  0  0  0  0  0
    6.5419    7.6359   -1.9879 C   0  0  0  0  0  0  0  0  0  0  0  0
    7.8620    7.9939   -2.5758 C   0  0  0  0  0  0  0  0  0  0  0  0
    7.9202    7.6088   -4.0561 C   0  0  0  0  0  0  0  0  0  0  0  0
    6.1552    6.4487   -1.4416 C   0  0  0  0  0  0  0  0  0  0  0  0
    4.7960    6.4246   -1.0276 C   0  0  0  0  0  0  0  0  0  0  0  0
    4.1063    5.0741   -0.2298 Cl  0  0  0  0  0  0  0  0  0  0  0  0
    7.1989    5.1006   -1.2522 Cl  0  0  0  0  0  0  0  0  0  0  0  0
    1.7037    7.1599   -1.4866 C   0  0  0  0  0  0  0  0  0  0  0  0
    1.8688    5.7018   -2.4167 S   0  0  0  0  0  0  0  0  0  0  0  0
    3.2714    9.9726    0.4114 C   0  0  0  0  0  0  0  0  0  0  0  0
    2.6158   10.9163    1.1451 C   0  0  0  0  0  0  0  0  0  0  0  0
    0.8761   10.7724    1.0117 S   0  0  0  0  0  0  0  0  0  0  0  0
    3.1890   11.9105    1.9911 C   0  0  0  0  0  0  0  0  0  0  0  0
    2.5408   12.7484    2.8480 C   0  0  0  0  0  0  0  0  0  0  0  0
    3.4138   13.5733    3.6000 C   0  0  0  0  0  0  0  0  0  0  0  0
    3.0790   14.5400    4.5623 C   0  0  0  0  0  0  0  0  0  0  0  0
    1.7055   14.7142    5.0017 C   0  0  0  0  0  0  0  0  0  0  0  0
    0.9368   16.2726    5.0235 S   0  0  0  0  0  0  0  0  0  0  0  0
   -0.5384   15.6225    5.6508 C   0  0  0  0  0  0  0  0  0  0  0  0
   -1.7309   16.4845    5.8779 C   0  0  0  0  0  0  0  0  0  0  0  0
   -2.5900   16.5756    4.6142 C   0  0  0  0  0  0  0  0  0  0  0  0
   -0.4280   14.2747    5.8231 C   0  0  0  0  0  0  0  0  0  0  0  0
   -1.6880   13.2825    6.4333 Cl  0  0  0  0  0  0  0  0  0  0  0  0
    0.8430   13.7558    5.4601 C   0  0  0  0  0  0  0  0  0  0  0  0
    1.2582   12.1026    5.6663 Cl  0  0  0  0  0  0  0  0  0  0  0  0
    4.1226   15.2919    5.0887 C   0  0  0  0  0  0  0  0  0  0  0  0
    5.4762   15.0886    4.7311 C   0  0  0  0  0  0  0  0  0  0  0  0
    5.8162   14.0853    3.8099 C   0  0  0  0  0  0  0  0  0  0  0  0
    7.1970   13.8249    3.4334 C   0  0  0  0  0  0  0  0  0  0  0  0
    8.2159   15.0833    2.7990 S   0  0  0  0  0  0  0  0  0  0  0  0
    9.5509   14.0036    2.5827 C   0  0  0  0  0  0  0  0  0  0  0  0
   10.8306   14.4644    1.9772 C   0  0  0  0  0  0  0  0  0  0  0  0
   10.7896   14.3357    0.4525 C   0  0  0  0  0  0  0  0  0  0  0  0
    9.2091   12.7452    2.9777 C   0  0  0  0  0  0  0  0  0  0  0  0
    7.8778   12.6397    3.4634 C   0  0  0  0  0  0  0  0  0  0  0  0
    7.2440   11.1782    4.0956 Cl  0  0  0  0  0  0  0  0  0  0  0  0
   10.2742   11.4015    2.9132 Cl  0  0  0  0  0  0  0  0  0  0  0  0
    4.7712   13.3538    3.2592 C   0  0  0  0  0  0  0  0  0  0  0  0
    4.9274   12.1164    2.0462 S   0  0  0  0  0  0  0  0  0  0  0  0
    6.3451   15.9593    5.4520 C   0  0  0  0  0  0  0  0  0  0  0  0
    5.6841   16.7729    6.3001 C   0  0  0  0  0  0  0  0  0  0  0  0
    3.9702   16.5415    6.2916 S   0  0  0  0  0  0  0  0  0  0  0  0
    2.4165  -18.2793    6.1360 H   0  0  0  0  0  0  0  0  0  0  0  0
    3.6628  -16.6705    4.5114 H   0  0  0  0  0  0  0  0  0  0  0  0
    6.5359  -14.2444   -0.2937 H   0  0  0  0  0  0  0  0  0  0  0  0
    7.4844  -13.4586    0.9834 H   0  0  0  0  0  0  0  0  0  0  0  0
    6.1941  -11.3508    0.6353 H   0  0  0  0  0  0  0  0  0  0  0  0
    5.2361  -12.1386   -0.6213 H   0  0  0  0  0  0  0  0  0  0  0  0
    6.9663  -11.8681   -0.8667 H   0  0  0  0  0  0  0  0  0  0  0  0
   -6.0883  -17.0948    5.8885 H   0  0  0  0  0  0  0  0  0  0  0  0
   -4.9000  -16.8169    7.1767 H   0  0  0  0  0  0  0  0  0  0  0  0
   -6.3969  -14.6319    5.6479 H   0  0  0  0  0  0  0  0  0  0  0  0
   -5.2054  -14.3532    6.9219 H   0  0  0  0  0  0  0  0  0  0  0  0
   -6.7361  -15.1502    7.3023 H   0  0  0  0  0  0  0  0  0  0  0  0
   -2.4152  -13.7373    2.1065 H   0  0  0  0  0  0  0  0  0  0  0  0
    0.3735  -11.1432   -0.8114 H   0  0  0  0  0  0  0  0  0  0  0  0
    4.1571   -7.4468   -4.3054 H   0  0  0  0  0  0  0  0  0  0  0  0
    2.9586   -7.6022   -5.6047 H   0  0  0  0  0  0  0  0  0  0  0  0
    3.2716  -10.0790   -5.5868 H   0  0  0  0  0  0  0  0  0  0  0  0
    4.4684   -9.9184   -4.2973 H   0  0  0  0  0  0  0  0  0  0  0  0
    4.7989   -9.2455   -5.8968 H   0  0  0  0  0  0  0  0  0  0  0  0
   -9.3476  -11.0970    0.6886 H   0  0  0  0  0  0  0  0  0  0  0  0
   -8.4830  -12.4825   -0.0059 H   0  0  0  0  0  0  0  0  0  0  0  0
   -9.9654  -10.3344   -1.5998 H   0  0  0  0  0  0  0  0  0  0  0  0
  -10.5345  -11.9820   -1.3132 H   0  0  0  0  0  0  0  0  0  0  0  0
   -9.0944  -11.7029   -2.2994 H   0  0  0  0  0  0  0  0  0  0  0  0
   -5.4883   -7.5102   -2.6696 H   0  0  0  0  0  0  0  0  0  0  0  0
   -7.9221   -7.4645   -5.4712 H   0  0  0  0  0  0  0  0  0  0  0  0
   -8.6786   -5.4121   -5.5567 H   0  0  0  0  0  0  0  0  0  0  0  0
   -8.6114   -2.9825   -5.7731 H   0  0  0  0  0  0  0  0  0  0  0  0
   -6.5073   -1.7407   -5.4205 H   0  0  0  0  0  0  0  0  0  0  0  0
   -1.5342   -2.0796   -4.6096 H   0  0  0  0  0  0  0  0  0  0  0  0
    3.9151   -3.0790   -3.5995 H   0  0  0  0  0  0  0  0  0  0  0  0
    2.9536   -3.0957   -2.1123 H   0  0  0  0  0  0  0  0  0  0  0  0
    2.7353   -5.2589   -3.2853 H   0  0  0  0  0  0  0  0  0  0  0  0
    1.1808   -4.4233   -3.2664 H   0  0  0  0  0  0  0  0  0  0  0  0
    2.1550   -4.4403   -4.7388 H   0  0  0  0  0  0  0  0  0  0  0  0
   -8.4475    5.0835   -3.4787 H   0  0  0  0  0  0  0  0  0  0  0  0
   -8.3791    3.6267   -2.4670 H   0  0  0  0  0  0  0  0  0  0  0  0
  -10.1540    3.4097   -4.1869 H   0  0  0  0  0  0  0  0  0  0  0  0
   -8.8766    2.2216   -4.4714 H   0  0  0  0  0  0  0  0  0  0  0  0
   -8.9669    3.6777   -5.4670 H   0  0  0  0  0  0  0  0  0  0  0  0
   -2.5254    4.8201   -3.2078 H   0  0  0  0  0  0  0  0  0  0  0  0
   -1.5973    6.5946   -1.8165 H   0  0  0  0  0  0  0  0  0  0  0  0
   -5.8903    9.3423    0.4414 H   0  0  0  0  0  0  0  0  0  0  0  0
   -5.3610    7.6900    0.8151 H   0  0  0  0  0  0  0  0  0  0  0  0
   -4.4397    8.4838    2.9951 H   0  0  0  0  0  0  0  0  0  0  0  0
   -6.1640    8.8480    2.8634 H   0  0  0  0  0  0  0  0  0  0  0  0
   -4.9693   10.1265    2.6218 H   0  0  0  0  0  0  0  0  0  0  0  0
    8.6452    7.4632   -2.0307 H   0  0  0  0  0  0  0  0  0  0  0  0
    8.0260    9.0674   -2.4704 H   0  0  0  0  0  0  0  0  0  0  0  0
    8.8870    7.8760   -4.4740 H   0  0  0  0  0  0  0  0  0  0  0  0
    7.1432    8.1281   -4.6119 H   0  0  0  0  0  0  0  0  0  0  0  0
    7.7739    6.5383   -4.1717 H   0  0  0  0  0  0  0  0  0  0  0  0
    4.3439    9.9043    0.3837 H   0  0  0  0  0  0  0  0  0  0  0  0
    1.4695   12.7757    2.9304 H   0  0  0  0  0  0  0  0  0  0  0  0
   -1.4041   17.4838    6.1695 H   0  0  0  0  0  0  0  0  0  0  0  0
   -2.3223   16.0572    6.6901 H   0  0  0  0  0  0  0  0  0  0  0  0
   -3.4589   17.2016    4.7984 H   0  0  0  0  0  0  0  0  0  0  0  0
   -2.0154   17.0059    3.7975 H   0  0  0  0  0  0  0  0  0  0  0  0
   -2.9293   15.5865    4.3175 H   0  0  0  0  0  0  0  0  0  0  0  0
   11.0070   15.5060    2.2505 H   0  0  0  0  0  0  0  0  0  0  0  0
   11.6452   13.8544    2.3724 H   0  0  0  0  0  0  0  0  0  0  0  0
   10.6272   13.2996    0.1671 H   0  0  0  0  0  0  0  0  0  0  0  0
   11.7296   14.6727    0.0241 H   0  0  0  0  0  0  0  0  0  0  0  0
    9.9826   14.9395    0.0443 H   0  0  0  0  0  0  0  0  0  0  0  0
    7.4129   15.9617    5.3340 H   0  0  0  0  0  0  0  0  0  0  0  0
    6.0961   17.5161    6.9544 H   0  0  0  0  0  0  0  0  0  0  0  0
  1  2  2  0  0  0  0
  2  3  1  0  0  0  0
  3  4  2  0  0  0  0
  4  5  1  0  0  0  0
  5  6  1  0  0  0  0
  6  7  1  0  0  0  0
  7  8  1  0  0  0  0
  8  9  1  0  0  0  0
  7 10  2  0  0  0  0
 10 11  1  0  0  0  0
 10 12  1  0  0  0  0
 12 13  1  0  0  0  0
  4 14  1  0  0  0  0
 14 15  2  0  0  0  0
 15 16  1  0  0  0  0
 16 17  1  0  0  0  0
 17 18  1  0  0  0  0
 18 19  1  0  0  0  0
 19 20  1  0  0  0  0
 20 21  1  0  0  0  0
 19 22  2  0  0  0  0
 22 23  1  0  0  0  0
 23 24  1  0  0  0  0
 22 25  1  0  0  0  0
 16 26  2  0  0  0  0
 26 27  1  0  0  0  0
 15 28  1  0  0  0  0
 28 29  2  0  0  0  0
 29 30  1  0  0  0  0
 29 31  1  0  0  0  0
 31 32  2  0  0  0  0
 32 33  1  0  0  0  0
 33 34  2  0  0  0  0
 34 35  1  0  0  0  0
 35 36  1  0  0  0  0
 36 37  1  0  0  0  0
 37 38  1  0  0  0  0
 38 39  1  0  0  0  0
 37 40  2  0  0  0  0
 40 41  1  0  0  0  0
 40 42  1  0  0  0  0
 42 43  1  0  0  0  0
 34 44  1  0  0  0  0
 44 45  2  0  0  0  0
 45 46  1  0  0  0  0
 46 47  1  0  0  0  0
 47 48  1  0  0  0  0
 48 49  1  0  0  0  0
 49 50  1  0  0  0  0
 50 51  1  0  0  0  0
 49 52  2  0  0  0  0
 52 53  1  0  0  0  0
 53 54  1  0  0  0  0
 52 55  1  0  0  0  0
 46 56  2  0  0  0  0
 56 57  1  0  0  0  0
 45 58  1  0  0  0  0
 58 59  2  0  0  0  0
 59 60  1  0  0  0  0
 59 61  1  0  0  0  0
 61 62  1  0  0  0  0
 62 63  1  0  0  0  0
 63 64  2  0  0  0  0
 64 65  1  0  0  0  0
 65 66  1  0  0  0  0
 66 67  1  0  0  0  0
 66 68  2  0  0  0  0
 68 69  1  0  0  0  0
 69 70  2  0  0  0  0
 63 71  1  0  0  0  0
 71 72  2  0  0  0  0
 72 73  1  0  0  0  0
 73 74  2  0  0  0  0
 74 75  1  0  0  0  0
 75 76  1  0  0  0  0
 76 77  1  0  0  0  0
 77 78  1  0  0  0  0
 78 79  1  0  0  0  0
 77 80  2  0  0  0  0
 80 81  1  0  0  0  0
 80 82  1  0  0  0  0
 82 83  1  0  0  0  0
 74 84  1  0  0  0  0
 84 85  2  0  0  0  0
 85 86  1  0  0  0  0
 86 87  1  0  0  0  0
 87 88  1  0  0  0  0
 88 89  1  0  0  0  0
 89 90  1  0  0  0  0
 90 91  1  0  0  0  0
 89 92  2  0  0  0  0
 92 93  1  0  0  0  0
 93 94  1  0  0  0  0
 92 95  1  0  0  0  0
 86 96  2  0  0  0  0
 96 97  1  0  0  0  0
 85 98  1  0  0  0  0
 98 99  2  0  0  0  0
 99100  1  0  0  0  0
 99101  1  0  0  0  0
101102  2  0  0  0  0
102103  1  0  0  0  0
103104  2  0  0  0  0
104105  1  0  0  0  0
105106  1  0  0  0  0
106107  1  0  0  0  0
107108  1  0  0  0  0
108109  1  0  0  0  0
107110  2  0  0  0  0
110111  1  0  0  0  0
110112  1  0  0  0  0
112113  1  0  0  0  0
104114  1  0  0  0  0
114115  2  0  0  0  0
115116  1  0  0  0  0
116117  1  0  0  0  0
117118  1  0  0  0  0
118119  1  0  0  0  0
119120  1  0  0  0  0
120121  1  0  0  0  0
119122  2  0  0  0  0
122123  1  0  0  0  0
123124  1  0  0  0  0
122125  1  0  0  0  0
116126  2  0  0  0  0
126127  1  0  0  0  0
115128  1  0  0  0  0
128129  2  0  0  0  0
129130  1  0  0  0  0
129131  1  0  0  0  0
131132  2  0  0  0  0
132133  1  0  0  0  0
133134  2  0  0  0  0
134135  1  0  0  0  0
135136  1  0  0  0  0
136137  1  0  0  0  0
137138  1  0  0  0  0
138139  1  0  0  0  0
137140  2  0  0  0  0
140141  1  0  0  0  0
140142  1  0  0  0  0
142143  1  0  0  0  0
134144  1  0  0  0  0
144145  2  0  0  0  0
145146  1  0  0  0  0
146147  1  0  0  0  0
147148  1  0  0  0  0
148149  1  0  0  0  0
149150  1  0  0  0  0
150151  1  0  0  0  0
149152  2  0  0  0  0
152153  1  0  0  0  0
153154  1  0  0  0  0
152155  1  0  0  0  0
146156  2  0  0  0  0
156157  1  0  0  0  0
145158  1  0  0  0  0
158159  2  0  0  0  0
159160  1  0  0  0  0
 27  1  1  0  0  0  0
 57 31  1  0  0  0  0
 65 61  2  0  0  0  0
 97 71  1  0  0  0  0
127101  1  0  0  0  0
157131  1  0  0  0  0
 26  3  1  0  0  0  0
 56 33  1  0  0  0  0
 70 64  1  0  0  0  0
 96 73  1  0  0  0  0
126103  1  0  0  0  0
156133  1  0  0  0  0
 12  5  2  0  0  0  0
 30 14  1  0  0  0  0
 42 35  2  0  0  0  0
 60 44  1  0  0  0  0
 82 75  2  0  0  0  0
100 84  1  0  0  0  0
112105  2  0  0  0  0
130114  1  0  0  0  0
142135  2  0  0  0  0
160144  1  0  0  0  0
 23 17  2  0  0  0  0
 53 47  2  0  0  0  0
 93 87  2  0  0  0  0
123117  2  0  0  0  0
153147  2  0  0  0  0
  1161  1  0  0  0  0
  2162  1  0  0  0  0
  8163  1  0  0  0  0
  8164  1  0  0  0  0
  9165  1  0  0  0  0
  9166  1  0  0  0  0
  9167  1  0  0  0  0
 20168  1  0  0  0  0
 20169  1  0  0  0  0
 21170  1  0  0  0  0
 21171  1  0  0  0  0
 21172  1  0  0  0  0
 28173  1  0  0  0  0
 32174  1  0  0  0  0
 38175  1  0  0  0  0
 38176  1  0  0  0  0
 39177  1  0  0  0  0
 39178  1  0  0  0  0
 39179  1  0  0  0  0
 50180  1  0  0  0  0
 50181  1  0  0  0  0
 51182  1  0  0  0  0
 51183  1  0  0  0  0
 51184  1  0  0  0  0
 58185  1  0  0  0  0
 67186  1  0  0  0  0
 68187  1  0  0  0  0
 69188  1  0  0  0  0
 70189  1  0  0  0  0
 72190  1  0  0  0  0
 78191  1  0  0  0  0
 78192  1  0  0  0  0
 79193  1  0  0  0  0
 79194  1  0  0  0  0
 79195  1  0  0  0  0
 90196  1  0  0  0  0
 90197  1  0  0  0  0
 91198  1  0  0  0  0
 91199  1  0  0  0  0
 91200  1  0  0  0  0
 98201  1  0  0  0  0
102202  1  0  0  0  0
108203  1  0  0  0  0
108204  1  0  0  0  0
109205  1  0  0  0  0
109206  1  0  0  0  0
109207  1  0  0  0  0
120208  1  0  0  0  0
120209  1  0  0  0  0
121210  1  0  0  0  0
121211  1  0  0  0  0
121212  1  0  0  0  0
128213  1  0  0  0  0
132214  1  0  0  0  0
138215  1  0  0  0  0
138216  1  0  0  0  0
139217  1  0  0  0  0
139218  1  0  0  0  0
139219  1  0  0  0  0
150220  1  0  0  0  0
150221  1  0  0  0  0
151222  1  0  0  0  0
151223  1  0  0  0  0
151224  1  0  0  0  0
158225  1  0  0  0  0
159226  1  0  0  0  0
M  END
