228

C          7.53660       -4.67740      -10.35050
S          7.69750       -5.75340      -11.68050
C          5.98620       -6.01490      -11.67540
C          5.04320       -6.73330      -12.36950
C          3.74320       -6.47330      -11.81170
C          3.00410       -7.26080      -12.62650
S          4.43350       -7.84320      -13.59710
C          3.84350       -5.51280      -10.66600
C          5.33430       -5.27310      -10.65540
C          6.23560       -4.50770       -9.90040
C          5.90110       -3.64110       -8.79810
C          4.67720       -3.41460       -8.25120
C          4.68770       -2.48710       -7.17580
C          3.60020       -2.06920       -6.39090
C          2.24070       -2.53960       -6.67890
C          1.43600       -3.08580       -5.68060
C          0.18800       -3.58680       -5.98210
C         -0.31740       -3.55070       -7.28100
S         -1.93060       -4.22500       -7.54080
C         -1.82190       -5.03260       -9.18140
C         -0.71190       -6.06290       -9.24060
C          0.47320       -2.94840       -8.25490
F          0.03580       -2.82020       -9.52900
C          1.73410       -2.46480       -7.97280
C          3.88530       -1.21050       -5.34030
C          5.19630       -0.75380       -5.05390
C          6.28400       -1.16640       -5.84340
C          7.64900       -0.71770       -5.54740
C          8.46460       -0.18920       -6.54320
C          9.74250        0.25440       -6.26240
C         10.25720        0.17670       -4.97350
S         11.85360        0.72960       -4.47380
C         12.78450        0.87420       -6.03640
C         13.05600       -0.47630       -6.67090
C          9.42950       -0.35850       -3.98480
C          8.15480       -0.80270       -4.25040
F          9.89100       -0.44490       -2.72030
C          5.99420       -2.01790       -6.89840
S          7.15650       -2.71210       -7.99840
C          5.21240        0.13980       -3.95610
C          3.98280        0.35490       -3.40390
S          2.71920       -0.51850       -4.24340
C          3.71040        1.14970       -2.24940
C          4.64050        1.65360       -1.38680
C          4.08110        2.39050       -0.31910
C          4.77150        3.00720        0.73680
C          6.23250        2.89680        0.84890
C          6.84650        1.64600        0.87610
C          8.22050        1.54240        0.94020
C          9.02500        2.67670        0.97390
S         10.78500        2.46890        1.04640
C         11.32150        3.47730       -0.38480
C         10.73340        2.95970       -1.68210
C          8.39690        3.91770        0.98390
F          9.12530        5.05220        1.04620
C          7.02310        4.03860        0.91800
C          4.00550        3.69910        1.65470
C          2.58970        3.78050        1.58270
C          1.89320        3.14180        0.53500
C          0.42770        3.13340        0.48880
C         -0.30550        2.90410        1.65310
C         -1.68020        2.85820        1.63500
C         -2.39590        3.03230        0.45150
S         -4.15210        2.87630        0.56950
C         -4.81990        4.05420       -0.66130
C         -4.37040        5.47560       -0.39070
C         -1.65590        3.24660       -0.70800
C         -0.27600        3.30990       -0.69860
F         -2.26910        3.40800       -1.90120
C          2.66780        2.46970       -0.40220
S          2.07990        1.57390       -1.77940
C          2.06210        4.52810        2.66000
C          3.00180        4.94120        3.56830
S          4.63020        4.51090        3.06590
C          2.77540        5.59530        4.80750
S          3.88620        6.82670        5.36510
C          2.88440        7.12890        6.74160
C          2.85150        7.92650        7.84960
C          1.67870        7.61740        8.63260
C          1.86210        8.50060        9.63710
S          3.41250        9.17840        8.96000
C          0.88410        6.52730        7.98290
C          1.73960        6.27460        6.76640
C          1.69530        5.39640        5.69640
C          0.74180        4.31500        5.56270
C          0.96010        3.08780        5.02090
C         -0.17440        2.23300        5.03440
C         -0.31500        0.97300        4.42010
C          0.76960        0.40240        3.60910
C          2.09170        0.35800        4.04970
C          3.09910       -0.08190        3.21570
C          2.82730       -0.50800        1.91900
S          4.17890       -1.02010        0.89790
C          3.57910       -2.58580        0.14340
C          3.33960       -2.45690       -1.34660
C          1.50320       -0.47470        1.49520
F          1.17360       -0.86280        0.24690
C          0.48780       -0.03690        2.31740
C         -1.56780        0.38140        4.50490
C         -2.66100        0.99700        5.16200
C         -2.53870        2.28000        5.72030
C         -3.71050        2.94670        6.30030
C         -4.90840        3.01460        5.58710
C         -6.03690        3.56120        6.15830
C         -6.01380        4.07630        7.45320
S         -7.52190        4.75160        8.08640
C         -7.56680        4.17030        9.82290
C         -7.53170        2.65850        9.92010
C         -4.79580        4.06480        8.12600
C         -3.66270        3.49980        7.57470
F         -4.68200        4.60070        9.36140
C         -1.28400        2.86190        5.65240
S         -0.88560        4.47270        6.18920
C         -3.81570        0.18240        5.14760
C         -3.65050       -0.99790        4.48360
S         -2.02630       -1.17560        3.85820
C         -4.68380       -1.95840        4.25870
C         -5.96100       -1.84670        4.72400
C         -6.82270       -2.87960        4.28730
C         -8.18670       -3.03140        4.58660
C         -8.87660       -1.99910        5.36890
C         -9.63100       -2.30410        6.50030
C        -10.18190       -1.29950        7.26490
C        -10.00930        0.05070        6.94650
S        -10.69650        1.20030        8.09200
C        -10.69770        2.83630        7.25570
C        -11.49960        3.80280        8.10450
C         -9.28110        0.33720        5.79610
F         -9.05330        1.61180        5.39630
C         -8.73430       -0.66050        5.01540
C         -8.80030       -4.17320        4.09590
C         -8.12100       -5.13460        3.30620
C         -6.76290       -4.96870        2.99240
C         -6.02690       -5.95100        2.18650
C         -5.27950       -5.55400        1.07880
C         -4.57280       -6.47820        0.34150
C         -4.57940       -7.83330        0.67310
S         -3.66130       -8.91540       -0.37540
C         -3.13000      -10.28210        0.73290
C         -1.91980      -10.96020        0.12140
C         -5.34520       -8.21710        1.76980
C         -6.04940       -7.29980        2.52360
F         -5.43430       -9.51640        2.13910
C         -6.14410       -3.82960        3.48780
S         -4.46720       -3.38800        3.27140
C         -9.00380       -6.16990        2.87450
C        -10.26510       -6.00770        3.32150
S        -10.48200       -4.59180        4.29320
H          8.41360       -4.20920       -9.94840
H          1.97620       -7.52480      -12.75480
H          3.49410       -5.95230       -9.72810
H          3.28210       -4.59270      -10.84690
H          3.78380       -3.90830       -8.57990
H          1.80600       -3.14780       -4.66910
H         -0.42260       -4.02920       -5.21060
H         -1.71100       -4.26870       -9.94780
H         -2.79900       -5.50350       -9.28910
H          0.26290       -5.59180       -9.12900
H         -0.73680       -6.57280      -10.20160
H         -0.83180       -6.80000       -8.44940
H          2.30020       -1.99890       -8.76490
H          8.08710       -0.09850       -7.55010
H         10.33190        0.67610       -7.06020
H         13.71470        1.35450       -5.73250
H         12.24860        1.54920       -6.70270
H         13.64480       -0.34740       -7.57690
H         13.61120       -1.10880       -5.98210
H         12.12760       -0.98200       -6.92830
H          7.57320       -1.23610       -3.45200
H          6.10290        0.62670       -3.60580
H          5.69720        1.49770       -1.49600
H          6.23760        0.75530        0.85400
H          8.69760        0.57510        0.95160
H         11.05650        4.51630       -0.19900
H         12.40650        3.37910       -0.37800
H         10.97590        1.90830       -1.81830
H          9.64970        3.06820       -1.68630
H         11.14020        3.52060       -2.52120
H          6.58400        5.02430        0.90980
H          0.21700        2.73890        2.57770
H         -2.22970        2.67760        2.54670
H         -4.54240        3.71950       -1.65820
H         -5.89860        3.95330       -0.53960
H         -3.29280        5.57170       -0.50880
H         -4.85300        6.15110       -1.09390
H         -4.63580        5.77480        0.62130
H          0.23090        3.50510       -1.63050
H          1.02410        4.78630        2.75890
H          1.36380        8.78690       10.53880
H         -0.12360        6.84850        7.70910
H          0.79170        5.63740        8.60950
H          1.90750        2.80010        4.60650
H          2.32930        0.64170        5.06360
H          4.12130       -0.10610        3.56020
H          4.36670       -3.31100        0.35060
H          2.67690       -2.87670        0.67650
H          4.24740       -2.12930       -1.84940
H          3.04500       -3.42310       -1.75220
H          2.54760       -1.74100       -1.54860
H         -0.51380       -0.00300        1.91950
H         -4.95070        2.63820        4.57620
H         -6.96670        3.58780        5.61130
H         -8.51090        4.56760       10.19560
H         -6.74900        4.63380       10.37000
H         -6.60110        2.26500        9.51420
H         -7.60440        2.35870       10.96350
H         -8.36230        2.21510        9.37540
H         -2.75400        3.48610        8.15610
H         -4.73440        0.46970        5.62220
H         -6.28100       -1.05900        5.37880
H         -9.76390       -3.33340        6.79490
H        -10.75160       -1.54070        8.14900
H         -9.66850        3.17650        7.15330
H        -11.14920        2.70540        6.27390
H        -12.52830        3.46510        8.20830
H        -11.49560        4.78440        7.63650
H        -11.06390        3.89040        9.09730
H         -8.19610       -0.37600        4.12410
H         -5.26190       -4.51510        0.78860
H         -3.99570       -6.16630       -0.51490
H         -2.88810       -9.83950        1.69800
H         -3.95820      -10.98040        0.84270
H         -2.16510      -11.36800       -0.85670
H         -1.10280      -10.25180        0.00430
H         -1.59040      -11.77280        0.76540
H         -6.60380       -7.65070        3.38050
H         -8.69710       -6.98200        2.24100
H        -11.11360       -6.63870        3.14240
