200

C          6.04780      -11.27530       12.45650
C          6.85950      -10.21940       12.24420
C          6.29110       -9.25290       11.36420
C          6.86570       -8.05990       10.89570
C          8.15020       -7.59520       11.39190
S          9.44360       -7.16700       10.31270
C         10.49990       -6.75210       11.61900
C         11.90200       -6.31920       11.36810
C         12.82200       -7.52660       11.17220
C          9.87340       -6.94210       12.81450
Cl        10.60260       -6.63570       14.33780
C          8.53980       -7.41530       12.69040
Cl         7.51270       -7.65130       14.04580
C          6.15070       -7.34850        9.94100
C          4.87800       -7.75820        9.47630
C          4.27510       -8.91990        9.98750
C          2.94770       -9.31930        9.55020
S          2.56120       -9.46660        7.85990
C          0.91050       -9.86950        8.18740
C         -0.06340      -10.05300        7.07660
C         -0.43500       -8.70530        6.45250
C          0.69000       -9.89470        9.53180
C          1.84220       -9.59060       10.30740
Cl         1.79350       -9.48390       12.01680
Cl        -0.82830      -10.24910       10.24870
C          5.00760       -9.64930       10.91620
S          4.54320      -11.17520       11.61130
C          4.35050       -6.85180        8.52620
C          5.16990       -5.79630        8.26220
S          6.64960       -5.85250        9.19670
C          4.90860       -4.75230        7.32710
C          5.56300       -3.57210        7.14160
C          5.00970       -2.77900        6.10470
C          5.45050       -1.53070        5.62960
C          6.65600       -0.90870        6.15010
S          6.65730        0.73530        6.71520
C          8.34010        0.67930        7.11470
C          9.04530        1.87790        7.64590
C          9.44990        2.81930        6.50900
C          8.85870       -0.54330        6.80900
Cl        10.50170       -0.97450        7.05250
C          7.90730       -1.44840        6.26650
Cl         8.33510       -3.02520        5.73790
C          4.69700       -0.93760        4.62620
C          3.56170       -1.55080        4.04550
C          3.13340       -2.81040        4.49960
C          2.00120       -3.49190        3.89480
S          1.92980       -3.73490        2.17280
C          0.43780       -4.60600        2.27440
C         -0.25110       -5.08940        1.04660
C         -0.89330       -3.92640        0.28730
C          0.02910       -4.68940        3.57120
C          0.91160       -4.06260        4.49240
Cl         0.55640       -3.96640        6.16610
Cl        -1.40690       -5.48130        4.07750
C          3.86890       -3.38930        5.52520
S          3.55820       -4.94580        6.22900
C          2.98710       -0.74750        3.03530
C          3.64340        0.43070        2.81530
S          5.02750        0.60150        3.88060
C          3.27460        1.39970        1.83680
S          1.97290        0.98460        0.74820
C          2.07070        2.52630       -0.06820
C          3.07780        3.29090        0.48070
C          3.74870        2.66130        1.55120
C          4.84750        3.43150        2.19790
C          5.82440        3.93200        1.12370
C          5.13330        4.52490       -0.12300
C          5.45650        3.69250       -1.36350
C          3.60370        4.61450        0.04180
C          1.13660        2.74010       -1.12200
C          0.73550        3.90730       -1.66770
C         -0.23190        3.96970       -2.71350
C         -0.75660        5.08810       -3.29880
C         -1.72360        4.81380       -4.29610
C         -2.48610        5.72440       -5.05120
C         -2.35580        7.16200       -4.87870
S         -2.52870        7.90920       -3.31700
C         -2.32410        9.50130       -3.96540
C         -2.32150       10.70120       -3.08390
C         -0.93940       10.92620       -2.46650
C         -2.11980        9.43910       -5.31090
Cl        -1.86400       10.81510       -6.30400
C         -2.14410        8.11770       -5.83300
Cl        -1.84890        7.78150       -7.48730
C         -3.40210        5.19070       -5.94780
C         -3.56540        3.79770       -6.14400
C         -2.79210        2.88550       -5.40480
C         -2.96560        1.45210       -5.57330
S         -4.53970        0.71620       -5.45440
C         -3.91020       -0.86640       -5.74950
C         -4.80640       -2.04950       -5.86090
C         -5.28600       -2.23080       -7.30290
C         -2.56080       -0.81240       -5.93110
C         -2.02050        0.49730       -5.82700
Cl        -0.35980        0.82530       -6.09270
Cl        -1.58610       -2.18700       -6.25660
C         -1.89640        3.41960       -4.48980
S         -0.90350        2.50150       -3.40060
C         -4.56470        3.51270       -7.09780
C         -5.19880        4.61890       -7.59070
S         -4.54030        6.09400       -6.90930
C         -6.29800        4.59220       -8.49250
S         -6.84630        3.03080       -9.04200
C         -8.19770        3.73920       -9.86870
C         -8.17570        5.11600       -9.75400
C         -7.10550        5.60160       -8.97710
C         -6.91010        7.05740       -8.70090
C         -7.76710        7.91580       -9.62830
C         -9.20160        7.39200       -9.67570
C        -10.12320        8.35710      -10.41380
C         -9.20610        6.02060      -10.35430
C         -9.11140        2.96820      -10.65880
C         -9.46790        1.67360      -10.53290
C         -9.20840        0.74020       -9.47540
S         -8.98520        1.19640       -7.81520
C         -8.91890       -0.46690       -7.30120
C         -9.09500       -1.31990       -8.37150
C         -9.25800       -0.63580       -9.59410
C         -9.44960       -1.34790      -10.89790
C         -9.08680       -2.82480      -10.77380
C         -9.76380       -3.43110       -9.54640
C         -9.61390       -4.94890       -9.51880
C         -9.15520       -2.81280       -8.28580
C         -8.69970       -0.69340       -5.89870
C         -8.39150       -1.83700       -5.28860
H          6.23320      -12.13490       13.07050
H          7.83860      -10.12490       12.67560
H         11.93230       -5.69160       10.47580
H         12.24510       -5.73220       12.22200
H         12.49020       -8.11880       10.32270
H         13.84040       -7.19420       10.99030
H         12.81360       -8.15480       12.05930
H          0.37310      -10.69700        6.31040
H         -0.95760      -10.53710        7.47250
H         -1.14820       -8.85030        5.64550
H         -0.88290       -8.05330        7.19840
H          0.45010       -8.21640        6.05160
H          3.39240       -6.96470        8.05330
H          6.40140       -3.27520        7.74500
H          9.93540        1.55020        8.18580
H          8.38950        2.40760        8.33900
H         10.11740        2.31030        5.81820
H          8.56950        3.14900        5.96250
H          9.96090        3.69060        6.90950
H          0.47010       -5.58970        0.39700
H         -1.01690       -5.81000        1.33830
H         -0.13530       -3.20480       -0.00840
H         -1.39300       -4.29290       -0.60520
H         -1.62510       -3.42380        0.91500
H          2.10570       -1.02440        2.48610
H          5.38550        2.83720        2.93400
H          4.40650        4.28880        2.71610
H          6.44540        3.08970        0.81530
H          6.48390        4.67330        1.57700
H          5.50600        5.54070       -0.29010
H          4.99440        4.12530       -2.24840
H          5.08420        2.67690       -1.24650
H          6.53120        3.65130       -1.52620
H          3.16430        4.92300       -0.90490
H          3.36110        5.36890        0.79630
H          0.66570        1.83410       -1.48700
H          1.10410        4.85800       -1.31220
H         -0.46210        6.08290       -3.01720
H         -2.60190       11.57180       -3.67960
H         -3.05710       10.56870       -2.28850
H         -0.19680       11.06890       -3.24760
H         -0.95270       11.80890       -1.83280
H         -0.65150       10.06780       -1.86410
H         -5.67160       -1.91590       -5.20950
H         -4.25540       -2.93760       -5.54500
H         -5.88150       -3.13630       -7.38210
H         -4.43670       -2.31500       -7.97640
H         -5.89440       -1.38260       -7.60800
H         -4.82940        2.51880       -7.40790
H         -5.85580        7.32060       -8.81780
H         -7.17600        7.25890       -7.65770
H         -7.34720        7.89880      -10.63670
H         -7.75400        8.94910       -9.27730
H         -9.56330        7.27370       -8.64800
H         -9.76720        8.52290      -11.42880
H        -10.16000        9.31670       -9.90320
H        -11.13370        7.95740      -10.46510
H         -8.99220        6.14830      -11.42180
H        -10.19520        5.56460      -10.27040
H         -9.53750        3.51540      -11.49140
H        -10.08560        1.26200      -11.32300
H        -10.49890       -1.25560      -11.20130
H         -8.84180       -0.87580      -11.67320
H         -8.00390       -2.93060      -10.67600
H         -9.39660       -3.35360      -11.67710
H        -10.83080       -3.18320       -9.57990
H        -10.07410       -5.36290       -8.62420
H        -10.09110       -5.39660      -10.38750
H         -8.56190       -5.22790       -9.52520
H         -8.14240       -3.20720       -8.15430
H         -9.74250       -3.10260       -7.41110
H         -8.77930        0.20620       -5.30020
H         -8.25900       -2.76750       -5.80750
H         -8.25600       -1.86370       -4.22070
