
  xtb     02282218183D
 energy: -223.450322070541 gnorm: 0.000299067791 xtb: 6.4.1 (unknown)
131142  0     0  0            999 V2000
    4.6951    1.9041   -2.3128 C   0  0  0  0  0  0  0  0  0  0  0  0
    3.4020    1.1496   -1.4743 S   0  0  0  0  0  0  0  0  0  0  0  0
    3.8939   -0.4248   -2.0457 C   0  0  0  0  0  0  0  0  0  0  0  0
    5.0268   -0.3172   -2.8391 C   0  0  0  0  0  0  0  0  0  0  0  0
    5.4776    1.0152   -2.9853 C   0  0  0  0  0  0  0  0  0  0  0  0
    6.6646    1.3749   -3.8203 C   0  0  0  0  0  0  0  0  0  0  0  0
    7.5773    0.1637   -3.9915 C   0  0  0  0  0  0  0  0  0  0  0  0
    6.7689   -1.0258   -4.5074 C   0  0  0  0  0  0  0  0  0  0  0  0
    7.6659   -2.1935   -4.9027 C   0  0  0  0  0  0  0  0  0  0  0  0
    5.7681   -1.4696   -3.4374 C   0  0  0  0  0  0  0  0  0  0  0  0
    3.1492   -1.6215   -1.8583 C   0  0  0  0  0  0  0  0  0  0  0  0
    2.0513   -1.9311   -1.1237 C   0  0  0  0  0  0  0  0  0  0  0  0
    1.3582   -1.2608   -0.0855 C   0  0  0  0  0  0  0  0  0  0  0  0
    1.9674    0.0258    0.9122 S   0  0  0  0  0  0  0  0  0  0  0  0
    0.5755    0.0347    1.9759 C   0  0  0  0  0  0  0  0  0  0  0  0
   -0.3129   -0.9336    1.5536 C   0  0  0  0  0  0  0  0  0  0  0  0
   -1.8787   -1.4499    2.1159 S   0  0  0  0  0  0  0  0  0  0  0  0
   -1.9802   -2.6141    0.8097 C   0  0  0  0  0  0  0  0  0  0  0  0
   -3.1422   -3.4789    0.6254 C   0  0  0  0  0  0  0  0  0  0  0  0
   -3.2003   -4.3606   -0.1981 O   0  0  0  0  0  0  0  0  0  0  0  0
   -4.1329   -3.1953    1.4794 O   0  0  0  0  0  0  0  0  0  0  0  0
   -5.3036   -3.9976    1.3162 C   0  0  0  0  0  0  0  0  0  0  0  0
   -6.2596   -3.7377    2.4634 C   0  0  0  0  0  0  0  0  0  0  0  0
   -0.8642   -2.6036    0.0166 C   0  0  0  0  0  0  0  0  0  0  0  0
    0.1130   -1.6573    0.4080 C   0  0  0  0  0  0  0  0  0  0  0  0
   -0.7150   -3.3964   -1.0432 F   0  0  0  0  0  0  0  0  0  0  0  0
    0.4489    0.9490    3.0537 C   0  0  0  0  0  0  0  0  0  0  0  0
   -0.8205    0.7030    4.2217 S   0  0  0  0  0  0  0  0  0  0  0  0
   -0.4433    2.2140    5.0088 C   0  0  0  0  0  0  0  0  0  0  0  0
    0.6686    2.7965    4.4500 C   0  0  0  0  0  0  0  0  0  0  0  0
    1.1655    2.0995    3.3278 C   0  0  0  0  0  0  0  0  0  0  0  0
    2.3183    2.6049    2.5234 C   0  0  0  0  0  0  0  0  0  0  0  0
    2.6352    4.0617    2.8555 C   0  0  0  0  0  0  0  0  0  0  0  0
    2.6681    4.2825    4.3668 C   0  0  0  0  0  0  0  0  0  0  0  0
    3.1977    5.6692    4.7162 C   0  0  0  0  0  0  0  0  0  0  0  0
    1.2548    4.0906    4.9185 C   0  0  0  0  0  0  0  0  0  0  0  0
   -1.2896    2.7542    6.0502 C   0  0  0  0  0  0  0  0  0  0  0  0
   -2.6307    2.7728    5.9907 C   0  0  0  0  0  0  0  0  0  0  0  0
   -3.3509    2.3103    4.8238 C   0  0  0  0  0  0  0  0  0  0  0  0
   -2.8577    2.8388    3.2360 S   0  0  0  0  0  0  0  0  0  0  0  0
   -3.8076    1.5831    2.4692 C   0  0  0  0  0  0  0  0  0  0  0  0
   -4.5792    0.9299    3.4104 C   0  0  0  0  0  0  0  0  0  0  0  0
   -4.3164    1.3430    4.7327 C   0  0  0  0  0  0  0  0  0  0  0  0
   -5.0552    0.6561    5.8292 C   0  0  0  0  0  0  0  0  0  0  0  0
   -6.5261    0.6047    5.4060 C   0  0  0  0  0  0  0  0  0  0  0  0
   -6.7512   -0.1521    4.0826 C   0  0  0  0  0  0  0  0  0  0  0  0
   -7.8823    0.5111    3.2977 C   0  0  0  0  0  0  0  0  0  0  0  0
   -5.4806   -0.2352    3.2070 C   0  0  0  0  0  0  0  0  0  0  0  0
   -3.5396    1.1748    1.1413 C   0  0  0  0  0  0  0  0  0  0  0  0
   -2.4667    1.6331    0.4469 C   0  0  0  0  0  0  0  0  0  0  0  0
   -1.9125    1.1349   -0.7515 C   0  0  0  0  0  0  0  0  0  0  0  0
   -0.4660    1.9319   -1.3067 S   0  0  0  0  0  0  0  0  0  0  0  0
   -0.2514    0.8614   -2.6707 C   0  0  0  0  0  0  0  0  0  0  0  0
   -1.2665   -0.0760   -2.6701 C   0  0  0  0  0  0  0  0  0  0  0  0
   -1.6936   -1.3406   -3.7769 S   0  0  0  0  0  0  0  0  0  0  0  0
   -3.1018   -1.7173   -2.8254 C   0  0  0  0  0  0  0  0  0  0  0  0
   -3.9554   -2.8092   -3.3057 C   0  0  0  0  0  0  0  0  0  0  0  0
   -3.7761   -3.3562   -4.3666 O   0  0  0  0  0  0  0  0  0  0  0  0
   -4.9480   -3.0860   -2.4595 O   0  0  0  0  0  0  0  0  0  0  0  0
   -5.8035   -4.1715   -2.8191 C   0  0  0  0  0  0  0  0  0  0  0  0
   -5.1188   -5.5164   -2.6210 C   0  0  0  0  0  0  0  0  0  0  0  0
   -3.2319   -0.9093   -1.7317 C   0  0  0  0  0  0  0  0  0  0  0  0
   -2.2093    0.0665   -1.6049 C   0  0  0  0  0  0  0  0  0  0  0  0
   -4.2562   -1.0230   -0.8774 F   0  0  0  0  0  0  0  0  0  0  0  0
    0.8080    1.1296   -3.5770 C   0  0  0  0  0  0  0  0  0  0  0  0
    1.3102    2.7871   -3.7946 S   0  0  0  0  0  0  0  0  0  0  0  0
    2.5492    2.3691   -4.9121 C   0  0  0  0  0  0  0  0  0  0  0  0
    2.5741    1.0258   -5.1131 C   0  0  0  0  0  0  0  0  0  0  0  0
    3.6056   -0.0114   -6.0538 S   0  0  0  0  0  0  0  0  0  0  0  0
    2.7802   -1.4175   -5.4183 C   0  0  0  0  0  0  0  0  0  0  0  0
    3.2671   -2.7352   -5.8296 C   0  0  0  0  0  0  0  0  0  0  0  0
    4.2032   -2.8974   -6.5777 O   0  0  0  0  0  0  0  0  0  0  0  0
    2.5637   -3.7187   -5.2685 O   0  0  0  0  0  0  0  0  0  0  0  0
    2.9117   -5.0562   -5.6238 C   0  0  0  0  0  0  0  0  0  0  0  0
    1.7200   -5.9486   -5.3318 C   0  0  0  0  0  0  0  0  0  0  0  0
    1.7620   -1.0963   -4.5631 C   0  0  0  0  0  0  0  0  0  0  0  0
    1.5930    0.2974   -4.3646 C   0  0  0  0  0  0  0  0  0  0  0  0
    1.0247   -2.0142   -3.9444 F   0  0  0  0  0  0  0  0  0  0  0  0
    4.8029    2.9692   -2.2546 H   0  0  0  0  0  0  0  0  0  0  0  0
    6.3134    1.7023   -4.8044 H   0  0  0  0  0  0  0  0  0  0  0  0
    7.2028    2.2098   -3.3662 H   0  0  0  0  0  0  0  0  0  0  0  0
    8.3774    0.4051   -4.6931 H   0  0  0  0  0  0  0  0  0  0  0  0
    8.0343   -0.0933   -3.0328 H   0  0  0  0  0  0  0  0  0  0  0  0
    6.2120   -0.7075   -5.3946 H   0  0  0  0  0  0  0  0  0  0  0  0
    7.0639   -3.0107   -5.2925 H   0  0  0  0  0  0  0  0  0  0  0  0
    8.3665   -1.8895   -5.6766 H   0  0  0  0  0  0  0  0  0  0  0  0
    8.2334   -2.5530   -4.0458 H   0  0  0  0  0  0  0  0  0  0  0  0
    5.0731   -2.1908   -3.8740 H   0  0  0  0  0  0  0  0  0  0  0  0
    6.3061   -1.9893   -2.6357 H   0  0  0  0  0  0  0  0  0  0  0  0
    3.4971   -2.4248   -2.4971 H   0  0  0  0  0  0  0  0  0  0  0  0
    1.6094   -2.8932   -1.3524 H   0  0  0  0  0  0  0  0  0  0  0  0
   -5.7592   -3.7451    0.3524 H   0  0  0  0  0  0  0  0  0  0  0  0
   -5.0011   -5.0511    1.2858 H   0  0  0  0  0  0  0  0  0  0  0  0
   -5.7577   -3.9027    3.4134 H   0  0  0  0  0  0  0  0  0  0  0  0
   -7.1042   -4.4169    2.3873 H   0  0  0  0  0  0  0  0  0  0  0  0
   -6.6230   -2.7157    2.4294 H   0  0  0  0  0  0  0  0  0  0  0  0
    3.1942    1.9794    2.7259 H   0  0  0  0  0  0  0  0  0  0  0  0
    2.1002    2.5106    1.4559 H   0  0  0  0  0  0  0  0  0  0  0  0
    1.8730    4.7101    2.4181 H   0  0  0  0  0  0  0  0  0  0  0  0
    3.5966    4.3284    2.4137 H   0  0  0  0  0  0  0  0  0  0  0  0
    3.3255    3.5294    4.8156 H   0  0  0  0  0  0  0  0  0  0  0  0
    3.1890    5.8226    5.7931 H   0  0  0  0  0  0  0  0  0  0  0  0
    4.2188    5.7890    4.3616 H   0  0  0  0  0  0  0  0  0  0  0  0
    2.5820    6.4385    4.2546 H   0  0  0  0  0  0  0  0  0  0  0  0
    1.2658    4.1178    6.0110 H   0  0  0  0  0  0  0  0  0  0  0  0
    0.6189    4.9157    4.5809 H   0  0  0  0  0  0  0  0  0  0  0  0
   -0.7859    3.1745    6.9114 H   0  0  0  0  0  0  0  0  0  0  0  0
   -3.2088    3.1226    6.8356 H   0  0  0  0  0  0  0  0  0  0  0  0
   -4.9456    1.1867    6.7756 H   0  0  0  0  0  0  0  0  0  0  0  0
   -4.6654   -0.3573    5.9589 H   0  0  0  0  0  0  0  0  0  0  0  0
   -7.1228    0.1451    6.1953 H   0  0  0  0  0  0  0  0  0  0  0  0
   -6.8723    1.6346    5.2900 H   0  0  0  0  0  0  0  0  0  0  0  0
   -7.0561   -1.1774    4.3175 H   0  0  0  0  0  0  0  0  0  0  0  0
   -7.5851    1.5085    2.9797 H   0  0  0  0  0  0  0  0  0  0  0  0
   -8.1330   -0.0704    2.4129 H   0  0  0  0  0  0  0  0  0  0  0  0
   -8.7754    0.5957    3.9132 H   0  0  0  0  0  0  0  0  0  0  0  0
   -4.9110   -1.1304    3.4767 H   0  0  0  0  0  0  0  0  0  0  0  0
   -5.7614   -0.3344    2.1588 H   0  0  0  0  0  0  0  0  0  0  0  0
   -4.1568    0.3805    0.7575 H   0  0  0  0  0  0  0  0  0  0  0  0
   -1.8972    2.4450    0.8852 H   0  0  0  0  0  0  0  0  0  0  0  0
   -6.6704   -4.0641   -2.1629 H   0  0  0  0  0  0  0  0  0  0  0  0
   -6.1123   -4.0468   -3.8630 H   0  0  0  0  0  0  0  0  0  0  0  0
   -5.8528   -6.3148   -2.6833 H   0  0  0  0  0  0  0  0  0  0  0  0
   -4.6305   -5.5388   -1.6502 H   0  0  0  0  0  0  0  0  0  0  0  0
   -4.3635   -5.6645   -3.3881 H   0  0  0  0  0  0  0  0  0  0  0  0
    3.1722    3.1266   -5.3392 H   0  0  0  0  0  0  0  0  0  0  0  0
    3.1890   -5.0800   -6.6836 H   0  0  0  0  0  0  0  0  0  0  0  0
    3.7861   -5.3570   -5.0337 H   0  0  0  0  0  0  0  0  0  0  0  0
    1.9720   -6.9809   -5.5564 H   0  0  0  0  0  0  0  0  0  0  0  0
    0.8690   -5.6476   -5.9363 H   0  0  0  0  0  0  0  0  0  0  0  0
    1.4416   -5.8650   -4.2849 H   0  0  0  0  0  0  0  0  0  0  0  0
  1  2  1  0  0  0  0
  2  3  1  0  0  0  0
  3  4  2  0  0  0  0
  4  5  1  0  0  0  0
  5  6  1  0  0  0  0
  6  7  1  0  0  0  0
  7  8  1  0  0  0  0
  8  9  1  0  0  0  0
  8 10  1  0  0  0  0
  3 11  1  0  0  0  0
 11 12  2  0  0  0  0
 12 13  1  0  0  0  0
 13 14  1  0  0  0  0
 14 15  1  0  0  0  0
 15 16  2  0  0  0  0
 16 17  1  0  0  0  0
 17 18  1  0  0  0  0
 18 19  1  0  0  0  0
 19 20  2  0  0  0  0
 19 21  1  0  0  0  0
 21 22  1  0  0  0  0
 22 23  1  0  0  0  0
 18 24  2  0  0  0  0
 24 25  1  0  0  0  0
 24 26  1  0  0  0  0
 15 27  1  0  0  0  0
 27 28  1  0  0  0  0
 28 29  1  0  0  0  0
 29 30  2  0  0  0  0
 30 31  1  0  0  0  0
 31 32  1  0  0  0  0
 32 33  1  0  0  0  0
 33 34  1  0  0  0  0
 34 35  1  0  0  0  0
 34 36  1  0  0  0  0
 29 37  1  0  0  0  0
 37 38  2  0  0  0  0
 38 39  1  0  0  0  0
 39 40  1  0  0  0  0
 40 41  1  0  0  0  0
 41 42  2  0  0  0  0
 42 43  1  0  0  0  0
 43 44  1  0  0  0  0
 44 45  1  0  0  0  0
 45 46  1  0  0  0  0
 46 47  1  0  0  0  0
 46 48  1  0  0  0  0
 41 49  1  0  0  0  0
 49 50  2  0  0  0  0
 50 51  1  0  0  0  0
 51 52  1  0  0  0  0
 52 53  1  0  0  0  0
 53 54  2  0  0  0  0
 54 55  1  0  0  0  0
 55 56  1  0  0  0  0
 56 57  1  0  0  0  0
 57 58  2  0  0  0  0
 57 59  1  0  0  0  0
 59 60  1  0  0  0  0
 60 61  1  0  0  0  0
 56 62  2  0  0  0  0
 62 63  1  0  0  0  0
 62 64  1  0  0  0  0
 53 65  1  0  0  0  0
 65 66  1  0  0  0  0
 66 67  1  0  0  0  0
 67 68  2  0  0  0  0
 68 69  1  0  0  0  0
 69 70  1  0  0  0  0
 70 71  1  0  0  0  0
 71 72  2  0  0  0  0
 71 73  1  0  0  0  0
 73 74  1  0  0  0  0
 74 75  1  0  0  0  0
 70 76  2  0  0  0  0
 76 77  1  0  0  0  0
 76 78  1  0  0  0  0
  5  1  2  0  0  0  0
 25 13  2  0  0  0  0
 31 27  2  0  0  0  0
 43 39  2  0  0  0  0
 63 51  2  0  0  0  0
 77 65  2  0  0  0  0
 10  4  1  0  0  0  0
 25 16  1  0  0  0  0
 36 30  1  0  0  0  0
 48 42  1  0  0  0  0
 63 54  1  0  0  0  0
 77 68  1  0  0  0  0
  1 79  1  0  0  0  0
  6 80  1  0  0  0  0
  6 81  1  0  0  0  0
  7 82  1  0  0  0  0
  7 83  1  0  0  0  0
  8 84  1  0  0  0  0
  9 85  1  0  0  0  0
  9 86  1  0  0  0  0
  9 87  1  0  0  0  0
 10 88  1  0  0  0  0
 10 89  1  0  0  0  0
 11 90  1  0  0  0  0
 12 91  1  0  0  0  0
 22 92  1  0  0  0  0
 22 93  1  0  0  0  0
 23 94  1  0  0  0  0
 23 95  1  0  0  0  0
 23 96  1  0  0  0  0
 32 97  1  0  0  0  0
 32 98  1  0  0  0  0
 33 99  1  0  0  0  0
 33100  1  0  0  0  0
 34101  1  0  0  0  0
 35102  1  0  0  0  0
 35103  1  0  0  0  0
 35104  1  0  0  0  0
 36105  1  0  0  0  0
 36106  1  0  0  0  0
 37107  1  0  0  0  0
 38108  1  0  0  0  0
 44109  1  0  0  0  0
 44110  1  0  0  0  0
 45111  1  0  0  0  0
 45112  1  0  0  0  0
 46113  1  0  0  0  0
 47114  1  0  0  0  0
 47115  1  0  0  0  0
 47116  1  0  0  0  0
 48117  1  0  0  0  0
 48118  1  0  0  0  0
 49119  1  0  0  0  0
 50120  1  0  0  0  0
 60121  1  0  0  0  0
 60122  1  0  0  0  0
 61123  1  0  0  0  0
 61124  1  0  0  0  0
 61125  1  0  0  0  0
 67126  1  0  0  0  0
 74127  1  0  0  0  0
 74128  1  0  0  0  0
 75129  1  0  0  0  0
 75130  1  0  0  0  0
 75131  1  0  0  0  0
M  END
