
  xtb     02282220103D
 energy: -456.406948553309 gnorm: 0.000385887232 xtb: 6.4.1 (unknown)
236262  0     0  0            999 V2000
    1.4420   -4.7186    6.0781 C   0  0  0  0  0  0  0  0  0  0  0  0
    1.0222   -3.5429    5.5686 C   0  0  0  0  0  0  0  0  0  0  0  0
   -0.3773   -3.3339    5.7417 C   0  0  0  0  0  0  0  0  0  0  0  0
   -1.1575   -2.2518    5.3068 C   0  0  0  0  0  0  0  0  0  0  0  0
   -0.5876   -1.1526    4.5414 C   0  0  0  0  0  0  0  0  0  0  0  0
    0.2770   -1.4418    3.0590 S   0  0  0  0  0  0  0  0  0  0  0  0
    0.5301    0.2489    2.7810 C   0  0  0  0  0  0  0  0  0  0  0  0
    1.3055    0.7325    1.6052 C   0  0  0  0  0  0  0  0  0  0  0  0
    2.8078    0.5329    1.8142 C   0  0  0  0  0  0  0  0  0  0  0  0
   -0.0203    0.9778    3.7916 C   0  0  0  0  0  0  0  0  0  0  0  0
    0.0330    2.6896    3.8738 Cl  0  0  0  0  0  0  0  0  0  0  0  0
   -0.6614    0.1897    4.7860 C   0  0  0  0  0  0  0  0  0  0  0  0
   -1.3792    0.8768    6.1826 Cl  0  0  0  0  0  0  0  0  0  0  0  0
   -2.5160   -2.3000    5.5918 C   0  0  0  0  0  0  0  0  0  0  0  0
   -3.1258   -3.3736    6.2849 C   0  0  0  0  0  0  0  0  0  0  0  0
   -2.3443   -4.4583    6.7154 C   0  0  0  0  0  0  0  0  0  0  0  0
   -2.9500   -5.6078    7.3666 C   0  0  0  0  0  0  0  0  0  0  0  0
   -4.2542   -6.4740    6.6052 S   0  0  0  0  0  0  0  0  0  0  0  0
   -4.3505   -7.6220    7.8960 C   0  0  0  0  0  0  0  0  0  0  0  0
   -5.3833   -8.6941    7.8970 C   0  0  0  0  0  0  0  0  0  0  0  0
   -6.7193   -8.1631    8.4226 C   0  0  0  0  0  0  0  0  0  0  0  0
   -3.4286   -7.3317    8.8561 C   0  0  0  0  0  0  0  0  0  0  0  0
   -2.6276   -6.1961    8.5565 C   0  0  0  0  0  0  0  0  0  0  0  0
   -1.4402   -5.5976    9.6370 Cl  0  0  0  0  0  0  0  0  0  0  0  0
   -3.2301   -8.2407   10.2978 Cl  0  0  0  0  0  0  0  0  0  0  0  0
   -0.9833   -4.4082    6.4362 C   0  0  0  0  0  0  0  0  0  0  0  0
    0.1805   -5.6474    6.8105 S   0  0  0  0  0  0  0  0  0  0  0  0
   -4.5231   -3.1864    6.4238 C   0  0  0  0  0  0  0  0  0  0  0  0
   -4.9913   -2.0455    5.8373 C   0  0  0  0  0  0  0  0  0  0  0  0
   -3.6964   -1.1295    5.0879 S   0  0  0  0  0  0  0  0  0  0  0  0
   -6.3493   -1.6232    5.7498 C   0  0  0  0  0  0  0  0  0  0  0  0
   -7.6058   -2.6358    6.4173 S   0  0  0  0  0  0  0  0  0  0  0  0
   -8.8414   -1.6033    5.7605 C   0  0  0  0  0  0  0  0  0  0  0  0
   -8.2986   -0.5252    5.1081 C   0  0  0  0  0  0  0  0  0  0  0  0
   -6.8838   -0.5167    5.1265 C   0  0  0  0  0  0  0  0  0  0  0  0
   -6.0792    0.5827    4.5140 C   0  0  0  0  0  0  0  0  0  0  0  0
   -6.9472    1.7820    4.1418 C   0  0  0  0  0  0  0  0  0  0  0  0
   -8.2337    1.3396    3.4469 C   0  0  0  0  0  0  0  0  0  0  0  0
   -7.9422    0.5102    2.1984 C   0  0  0  0  0  0  0  0  0  0  0  0
   -9.0901    0.5636    4.4523 C   0  0  0  0  0  0  0  0  0  0  0  0
  -10.2530   -1.9296    5.9299 C   0  0  0  0  0  0  0  0  0  0  0  0
  -11.0744   -2.2094    4.9115 C   0  0  0  0  0  0  0  0  0  0  0  0
  -10.5991   -2.3393    3.5493 C   0  0  0  0  0  0  0  0  0  0  0  0
  -11.1112   -1.8228    2.4003 C   0  0  0  0  0  0  0  0  0  0  0  0
  -10.2503   -1.9794    1.2779 C   0  0  0  0  0  0  0  0  0  0  0  0
  -10.3533   -1.4057   -0.0026 C   0  0  0  0  0  0  0  0  0  0  0  0
  -11.5018   -0.6087   -0.4082 C   0  0  0  0  0  0  0  0  0  0  0  0
  -12.3730   -1.0336   -1.8538 S   0  0  0  0  0  0  0  0  0  0  0  0
  -13.4917    0.2710   -1.6612 C   0  0  0  0  0  0  0  0  0  0  0  0
  -14.6246    0.4640   -2.6075 C   0  0  0  0  0  0  0  0  0  0  0  0
  -15.8145   -0.4190   -2.2237 C   0  0  0  0  0  0  0  0  0  0  0  0
  -13.1971    0.9830   -0.5376 C   0  0  0  0  0  0  0  0  0  0  0  0
  -14.0844    2.3569   -0.0139 Cl  0  0  0  0  0  0  0  0  0  0  0  0
  -12.0682    0.4912    0.1724 C   0  0  0  0  0  0  0  0  0  0  0  0
  -11.4670    1.2832    1.5715 Cl  0  0  0  0  0  0  0  0  0  0  0  0
   -9.2813   -1.6025   -0.8678 C   0  0  0  0  0  0  0  0  0  0  0  0
   -8.1733   -2.4168   -0.5406 C   0  0  0  0  0  0  0  0  0  0  0  0
   -8.0824   -3.0242    0.7201 C   0  0  0  0  0  0  0  0  0  0  0  0
   -6.9165   -3.8074    1.0886 C   0  0  0  0  0  0  0  0  0  0  0  0
   -6.0004   -3.4618    2.5297 S   0  0  0  0  0  0  0  0  0  0  0  0
   -4.8491   -4.7066    2.1890 C   0  0  0  0  0  0  0  0  0  0  0  0
   -3.6686   -4.9365    3.0654 C   0  0  0  0  0  0  0  0  0  0  0  0
   -2.4788   -4.0901    2.6068 C   0  0  0  0  0  0  0  0  0  0  0  0
   -5.1651   -5.3403    1.0240 C   0  0  0  0  0  0  0  0  0  0  0  0
   -6.3362   -4.8363    0.3989 C   0  0  0  0  0  0  0  0  0  0  0  0
   -6.9795   -5.5167   -1.0390 Cl  0  0  0  0  0  0  0  0  0  0  0  0
   -4.2475   -6.6274    0.3581 Cl  0  0  0  0  0  0  0  0  0  0  0  0
   -9.1035   -2.7414    1.6135 C   0  0  0  0  0  0  0  0  0  0  0  0
   -9.1015   -3.2032    3.2803 S   0  0  0  0  0  0  0  0  0  0  0  0
   -7.1567   -2.3507   -1.5202 C   0  0  0  0  0  0  0  0  0  0  0  0
   -7.4252   -1.4751   -2.5260 C   0  0  0  0  0  0  0  0  0  0  0  0
   -9.0115   -0.7561   -2.3750 S   0  0  0  0  0  0  0  0  0  0  0  0
   -6.3836   -1.0340   -3.4127 C   0  0  0  0  0  0  0  0  0  0  0  0
   -5.9460    0.2410   -3.6000 C   0  0  0  0  0  0  0  0  0  0  0  0
   -4.5992    0.3055   -4.0454 C   0  0  0  0  0  0  0  0  0  0  0  0
   -3.7612    1.4311   -4.0962 C   0  0  0  0  0  0  0  0  0  0  0  0
   -4.2437    2.7522   -3.7206 C   0  0  0  0  0  0  0  0  0  0  0  0
   -4.1089    4.1061   -4.7998 S   0  0  0  0  0  0  0  0  0  0  0  0
   -4.8407    5.1844   -3.6607 C   0  0  0  0  0  0  0  0  0  0  0  0
   -4.9982    6.6328   -3.9660 C   0  0  0  0  0  0  0  0  0  0  0  0
   -3.6918    7.3878   -3.7092 C   0  0  0  0  0  0  0  0  0  0  0  0
   -5.1506    4.5214   -2.5109 C   0  0  0  0  0  0  0  0  0  0  0  0
   -5.8808    5.2589   -1.1440 Cl  0  0  0  0  0  0  0  0  0  0  0  0
   -4.8174    3.1405   -2.5426 C   0  0  0  0  0  0  0  0  0  0  0  0
   -5.0494    2.1011   -1.1953 Cl  0  0  0  0  0  0  0  0  0  0  0  0
   -2.4275    1.2136   -4.4152 C   0  0  0  0  0  0  0  0  0  0  0  0
   -1.9114   -0.0661   -4.7282 C   0  0  0  0  0  0  0  0  0  0  0  0
   -2.7422   -1.1964   -4.6602 C   0  0  0  0  0  0  0  0  0  0  0  0
   -2.1911   -2.5290   -4.8594 C   0  0  0  0  0  0  0  0  0  0  0  0
   -1.3800   -2.9469   -6.3388 S   0  0  0  0  0  0  0  0  0  0  0  0
   -1.0018   -4.5396   -5.7746 C   0  0  0  0  0  0  0  0  0  0  0  0
   -0.1904   -5.4710   -6.6053 C   0  0  0  0  0  0  0  0  0  0  0  0
    1.2840   -5.0588   -6.6027 C   0  0  0  0  0  0  0  0  0  0  0  0
   -1.4821   -4.7199   -4.5126 C   0  0  0  0  0  0  0  0  0  0  0  0
   -2.1588   -3.5833   -3.9903 C   0  0  0  0  0  0  0  0  0  0  0  0
   -2.7712   -3.5446   -2.3908 Cl  0  0  0  0  0  0  0  0  0  0  0  0
   -1.2998   -6.1686   -3.6101 Cl  0  0  0  0  0  0  0  0  0  0  0  0
   -4.0617   -0.9838   -4.2921 C   0  0  0  0  0  0  0  0  0  0  0  0
   -5.2270   -2.2283   -3.9616 S   0  0  0  0  0  0  0  0  0  0  0  0
   -0.5052   -0.0441   -4.8932 C   0  0  0  0  0  0  0  0  0  0  0  0
    0.0491    1.1763   -4.6547 C   0  0  0  0  0  0  0  0  0  0  0  0
   -1.1537    2.3995   -4.3029 S   0  0  0  0  0  0  0  0  0  0  0  0
    1.4486    1.4425   -4.5398 C   0  0  0  0  0  0  0  0  0  0  0  0
    2.0629    2.3415   -3.7224 C   0  0  0  0  0  0  0  0  0  0  0  0
    3.4737    2.2014   -3.6922 C   0  0  0  0  0  0  0  0  0  0  0  0
    4.3991    2.9074   -2.9041 C   0  0  0  0  0  0  0  0  0  0  0  0
    3.9647    3.8735   -1.9091 C   0  0  0  0  0  0  0  0  0  0  0  0
    2.7884    3.4299   -0.7045 S   0  0  0  0  0  0  0  0  0  0  0  0
    2.8920    4.9677    0.0813 C   0  0  0  0  0  0  0  0  0  0  0  0
    2.1220    5.2494    1.3236 C   0  0  0  0  0  0  0  0  0  0  0  0
    2.8643    4.7232    2.5542 C   0  0  0  0  0  0  0  0  0  0  0  0
    3.7893    5.7660   -0.5626 C   0  0  0  0  0  0  0  0  0  0  0  0
    4.1607    7.3701   -0.0809 Cl  0  0  0  0  0  0  0  0  0  0  0  0
    4.3994    5.1505   -1.6900 C   0  0  0  0  0  0  0  0  0  0  0  0
    5.5061    5.9775   -2.7028 Cl  0  0  0  0  0  0  0  0  0  0  0  0
    5.7393    2.5710   -3.0524 C   0  0  0  0  0  0  0  0  0  0  0  0
    6.1871    1.5693   -3.9505 C   0  0  0  0  0  0  0  0  0  0  0  0
    5.2620    0.8698   -4.7456 C   0  0  0  0  0  0  0  0  0  0  0  0
    5.6904   -0.1537   -5.6833 C   0  0  0  0  0  0  0  0  0  0  0  0
    4.9650   -1.7349   -5.6921 S   0  0  0  0  0  0  0  0  0  0  0  0
    5.9553   -2.2688   -7.0054 C   0  0  0  0  0  0  0  0  0  0  0  0
    5.8755   -3.6642   -7.5183 C   0  0  0  0  0  0  0  0  0  0  0  0
    6.8531   -4.5755   -6.7719 C   0  0  0  0  0  0  0  0  0  0  0  0
    6.7971   -1.2721   -7.4003 C   0  0  0  0  0  0  0  0  0  0  0  0
    6.6495   -0.0715   -6.6556 C   0  0  0  0  0  0  0  0  0  0  0  0
    7.5429    1.3496   -7.0181 Cl  0  0  0  0  0  0  0  0  0  0  0  0
    7.9188   -1.4256   -8.6891 Cl  0  0  0  0  0  0  0  0  0  0  0  0
    3.9218    1.1871   -4.5728 C   0  0  0  0  0  0  0  0  0  0  0  0
    2.5889    0.4090   -5.3759 S   0  0  0  0  0  0  0  0  0  0  0  0
    7.5784    1.3417   -3.8353 C   0  0  0  0  0  0  0  0  0  0  0  0
    8.1850    2.1334   -2.9032 C   0  0  0  0  0  0  0  0  0  0  0  0
    7.0565    3.2093   -2.1133 S   0  0  0  0  0  0  0  0  0  0  0  0
    9.5675    2.1214   -2.5449 C   0  0  0  0  0  0  0  0  0  0  0  0
   10.5660    1.4384   -3.1760 C   0  0  0  0  0  0  0  0  0  0  0  0
   11.8303    1.5849   -2.5564 C   0  0  0  0  0  0  0  0  0  0  0  0
   13.0606    1.0437   -2.9663 C   0  0  0  0  0  0  0  0  0  0  0  0
   13.1434    0.1740   -4.1280 C   0  0  0  0  0  0  0  0  0  0  0  0
   12.1190   -1.2256   -4.2709 S   0  0  0  0  0  0  0  0  0  0  0  0
   12.7910   -1.6628   -5.8055 C   0  0  0  0  0  0  0  0  0  0  0  0
   12.2708   -2.8350   -6.5613 C   0  0  0  0  0  0  0  0  0  0  0  0
   10.8742   -2.5511   -7.1176 C   0  0  0  0  0  0  0  0  0  0  0  0
   13.7488   -0.7661   -6.1721 C   0  0  0  0  0  0  0  0  0  0  0  0
   14.6384   -0.8559   -7.6367 Cl  0  0  0  0  0  0  0  0  0  0  0  0
   13.9560    0.2722   -5.2226 C   0  0  0  0  0  0  0  0  0  0  0  0
   15.0552    1.5571   -5.4975 Cl  0  0  0  0  0  0  0  0  0  0  0  0
   14.1757    1.3675   -2.2026 C   0  0  0  0  0  0  0  0  0  0  0  0
   14.1097    2.2027   -1.0608 C   0  0  0  0  0  0  0  0  0  0  0  0
   12.8800    2.7397   -0.6501 C   0  0  0  0  0  0  0  0  0  0  0  0
   12.7703    3.5868    0.5276 C   0  0  0  0  0  0  0  0  0  0  0  0
   13.7214    5.0322    0.6991 S   0  0  0  0  0  0  0  0  0  0  0  0
   13.0001    5.4218    2.2233 C   0  0  0  0  0  0  0  0  0  0  0  0
   13.4342    6.6128    3.0039 C   0  0  0  0  0  0  0  0  0  0  0  0
   14.6546    6.2851    3.8677 C   0  0  0  0  0  0  0  0  0  0  0  0
   12.0878    4.4711    2.5708 C   0  0  0  0  0  0  0  0  0  0  0  0
   11.9493    3.4334    1.6100 C   0  0  0  0  0  0  0  0  0  0  0  0
   10.9123    2.0910    1.8523 Cl  0  0  0  0  0  0  0  0  0  0  0  0
   11.1761    4.5061    4.0239 Cl  0  0  0  0  0  0  0  0  0  0  0  0
   11.7644    2.4208   -1.4148 C   0  0  0  0  0  0  0  0  0  0  0  0
   10.1472    3.0043   -1.1515 S   0  0  0  0  0  0  0  0  0  0  0  0
   15.3818    2.3291   -0.4302 C   0  0  0  0  0  0  0  0  0  0  0  0
   16.3480    1.6261   -1.0555 C   0  0  0  0  0  0  0  0  0  0  0  0
   15.7909    0.7684   -2.4486 S   0  0  0  0  0  0  0  0  0  0  0  0
    2.4377   -5.1169    6.0815 H   0  0  0  0  0  0  0  0  0  0  0  0
    1.6709   -2.8364    5.0844 H   0  0  0  0  0  0  0  0  0  0  0  0
    0.9922    0.1899    0.7114 H   0  0  0  0  0  0  0  0  0  0  0  0
    1.0936    1.7926    1.4574 H   0  0  0  0  0  0  0  0  0  0  0  0
    3.0358   -0.5244    1.9264 H   0  0  0  0  0  0  0  0  0  0  0  0
    3.1380    1.0542    2.7096 H   0  0  0  0  0  0  0  0  0  0  0  0
    3.3549    0.9216    0.9595 H   0  0  0  0  0  0  0  0  0  0  0  0
   -5.5171   -9.0707    6.8813 H   0  0  0  0  0  0  0  0  0  0  0  0
   -5.0379   -9.5118    8.5321 H   0  0  0  0  0  0  0  0  0  0  0  0
   -6.6044   -7.7951    9.4391 H   0  0  0  0  0  0  0  0  0  0  0  0
   -7.0749   -7.3488    7.7954 H   0  0  0  0  0  0  0  0  0  0  0  0
   -7.4626   -8.9558    8.4210 H   0  0  0  0  0  0  0  0  0  0  0  0
   -5.1698   -3.8742    6.9377 H   0  0  0  0  0  0  0  0  0  0  0  0
   -5.5702    0.2012    3.6237 H   0  0  0  0  0  0  0  0  0  0  0  0
   -5.3008    0.9023    5.2123 H   0  0  0  0  0  0  0  0  0  0  0  0
   -6.3779    2.4490    3.4925 H   0  0  0  0  0  0  0  0  0  0  0  0
   -7.2077    2.3379    5.0456 H   0  0  0  0  0  0  0  0  0  0  0  0
   -8.7905    2.2329    3.1422 H   0  0  0  0  0  0  0  0  0  0  0  0
   -7.5360   -0.4641    2.4592 H   0  0  0  0  0  0  0  0  0  0  0  0
   -8.8532    0.3536    1.6273 H   0  0  0  0  0  0  0  0  0  0  0  0
   -7.2272    1.0245    1.5597 H   0  0  0  0  0  0  0  0  0  0  0  0
   -9.9669    0.1462    3.9559 H   0  0  0  0  0  0  0  0  0  0  0  0
   -9.4520    1.2519    5.2237 H   0  0  0  0  0  0  0  0  0  0  0  0
  -10.6323   -1.9196    6.9436 H   0  0  0  0  0  0  0  0  0  0  0  0
  -12.1343   -2.3410    5.0795 H   0  0  0  0  0  0  0  0  0  0  0  0
  -12.0418   -1.2866    2.3642 H   0  0  0  0  0  0  0  0  0  0  0  0
  -14.9253    1.5131   -2.5851 H   0  0  0  0  0  0  0  0  0  0  0  0
  -14.2981    0.2141   -3.6184 H   0  0  0  0  0  0  0  0  0  0  0  0
  -15.5283   -1.4678   -2.2467 H   0  0  0  0  0  0  0  0  0  0  0  0
  -16.6338   -0.2647   -2.9205 H   0  0  0  0  0  0  0  0  0  0  0  0
  -16.1583   -0.1738   -1.2219 H   0  0  0  0  0  0  0  0  0  0  0  0
   -3.4003   -5.9938    3.0236 H   0  0  0  0  0  0  0  0  0  0  0  0
   -3.9267   -4.6867    4.0954 H   0  0  0  0  0  0  0  0  0  0  0  0
   -2.7248   -3.0319    2.6548 H   0  0  0  0  0  0  0  0  0  0  0  0
   -1.6181   -4.2764    3.2433 H   0  0  0  0  0  0  0  0  0  0  0  0
   -2.2129   -4.3364    1.5820 H   0  0  0  0  0  0  0  0  0  0  0  0
   -6.2130   -2.8559   -1.4315 H   0  0  0  0  0  0  0  0  0  0  0  0
   -6.5353    1.1015   -3.3419 H   0  0  0  0  0  0  0  0  0  0  0  0
   -5.7890    7.0405   -3.3338 H   0  0  0  0  0  0  0  0  0  0  0  0
   -5.2874    6.7543   -5.0113 H   0  0  0  0  0  0  0  0  0  0  0  0
   -3.8188    8.4421   -3.9388 H   0  0  0  0  0  0  0  0  0  0  0  0
   -2.8963    6.9865   -4.3326 H   0  0  0  0  0  0  0  0  0  0  0  0
   -3.3990    7.2903   -2.6669 H   0  0  0  0  0  0  0  0  0  0  0  0
   -0.2936   -6.4789   -6.2004 H   0  0  0  0  0  0  0  0  0  0  0  0
   -0.5646   -5.4661   -7.6309 H   0  0  0  0  0  0  0  0  0  0  0  0
    1.6772   -5.0685   -5.5891 H   0  0  0  0  0  0  0  0  0  0  0  0
    1.3960   -4.0558   -7.0084 H   0  0  0  0  0  0  0  0  0  0  0  0
    1.8642   -5.7493   -7.2089 H   0  0  0  0  0  0  0  0  0  0  0  0
    0.0867   -0.9140   -5.1126 H   0  0  0  0  0  0  0  0  0  0  0  0
    1.5169    3.0579   -3.1363 H   0  0  0  0  0  0  0  0  0  0  0  0
    1.1416    4.7737    1.2619 H   0  0  0  0  0  0  0  0  0  0  0  0
    1.9828    6.3281    1.4130 H   0  0  0  0  0  0  0  0  0  0  0  0
    2.2854    4.9238    3.4513 H   0  0  0  0  0  0  0  0  0  0  0  0
    3.0170    3.6501    2.4712 H   0  0  0  0  0  0  0  0  0  0  0  0
    3.8331    5.2074    2.6466 H   0  0  0  0  0  0  0  0  0  0  0  0
    4.8583   -4.0377   -7.3916 H   0  0  0  0  0  0  0  0  0  0  0  0
    6.1202   -3.6623   -8.5823 H   0  0  0  0  0  0  0  0  0  0  0  0
    7.8718   -4.2184   -6.8993 H   0  0  0  0  0  0  0  0  0  0  0  0
    6.7876   -5.5890   -7.1580 H   0  0  0  0  0  0  0  0  0  0  0  0
    6.6194   -4.5898   -5.7102 H   0  0  0  0  0  0  0  0  0  0  0  0
    8.1020    0.5919   -4.3969 H   0  0  0  0  0  0  0  0  0  0  0  0
   10.4071    0.8597   -4.0660 H   0  0  0  0  0  0  0  0  0  0  0  0
   12.2269   -3.7049   -5.9021 H   0  0  0  0  0  0  0  0  0  0  0  0
   12.9583   -3.0525   -7.3800 H   0  0  0  0  0  0  0  0  0  0  0  0
   10.1776   -2.3500   -6.3065 H   0  0  0  0  0  0  0  0  0  0  0  0
   10.8985   -1.6867   -7.7761 H   0  0  0  0  0  0  0  0  0  0  0  0
   10.5155   -3.4069   -7.6835 H   0  0  0  0  0  0  0  0  0  0  0  0
   13.6810    7.4261    2.3193 H   0  0  0  0  0  0  0  0  0  0  0  0
   12.6090    6.9307    3.6437 H   0  0  0  0  0  0  0  0  0  0  0  0
   14.9556    7.1610    4.4359 H   0  0  0  0  0  0  0  0  0  0  0  0
   15.4870    5.9718    3.2419 H   0  0  0  0  0  0  0  0  0  0  0  0
   14.4196    5.4827    4.5624 H   0  0  0  0  0  0  0  0  0  0  0  0
   15.5488    2.9163    0.4538 H   0  0  0  0  0  0  0  0  0  0  0  0
   17.3837    1.5492   -0.7879 H   0  0  0  0  0  0  0  0  0  0  0  0
  1  2  2  0  0  0  0
  2  3  1  0  0  0  0
  3  4  2  0  0  0  0
  4  5  1  0  0  0  0
  5  6  1  0  0  0  0
  6  7  1  0  0  0  0
  7  8  1  0  0  0  0
  8  9  1  0  0  0  0
  7 10  2  0  0  0  0
 10 11  1  0  0  0  0
 10 12  1  0  0  0  0
 12 13  1  0  0  0  0
  4 14  1  0  0  0  0
 14 15  2  0  0  0  0
 15 16  1  0  0  0  0
 16 17  1  0  0  0  0
 17 18  1  0  0  0  0
 18 19  1  0  0  0  0
 19 20  1  0  0  0  0
 20 21  1  0  0  0  0
 19 22  2  0  0  0  0
 22 23  1  0  0  0  0
 23 24  1  0  0  0  0
 22 25  1  0  0  0  0
 16 26  2  0  0  0  0
 26 27  1  0  0  0  0
 15 28  1  0  0  0  0
 28 29  2  0  0  0  0
 29 30  1  0  0  0  0
 29 31  1  0  0  0  0
 31 32  1  0  0  0  0
 32 33  1  0  0  0  0
 33 34  2  0  0  0  0
 34 35  1  0  0  0  0
 35 36  1  0  0  0  0
 36 37  1  0  0  0  0
 37 38  1  0  0  0  0
 38 39  1  0  0  0  0
 38 40  1  0  0  0  0
 33 41  1  0  0  0  0
 41 42  2  0  0  0  0
 42 43  1  0  0  0  0
 43 44  2  0  0  0  0
 44 45  1  0  0  0  0
 45 46  2  0  0  0  0
 46 47  1  0  0  0  0
 47 48  1  0  0  0  0
 48 49  1  0  0  0  0
 49 50  1  0  0  0  0
 50 51  1  0  0  0  0
 49 52  2  0  0  0  0
 52 53  1  0  0  0  0
 52 54  1  0  0  0  0
 54 55  1  0  0  0  0
 46 56  1  0  0  0  0
 56 57  2  0  0  0  0
 57 58  1  0  0  0  0
 58 59  1  0  0  0  0
 59 60  1  0  0  0  0
 60 61  1  0  0  0  0
 61 62  1  0  0  0  0
 62 63  1  0  0  0  0
 61 64  2  0  0  0  0
 64 65  1  0  0  0  0
 65 66  1  0  0  0  0
 64 67  1  0  0  0  0
 58 68  2  0  0  0  0
 68 69  1  0  0  0  0
 57 70  1  0  0  0  0
 70 71  2  0  0  0  0
 71 72  1  0  0  0  0
 71 73  1  0  0  0  0
 73 74  2  0  0  0  0
 74 75  1  0  0  0  0
 75 76  2  0  0  0  0
 76 77  1  0  0  0  0
 77 78  1  0  0  0  0
 78 79  1  0  0  0  0
 79 80  1  0  0  0  0
 80 81  1  0  0  0  0
 79 82  2  0  0  0  0
 82 83  1  0  0  0  0
 82 84  1  0  0  0  0
 84 85  1  0  0  0  0
 76 86  1  0  0  0  0
 86 87  2  0  0  0  0
 87 88  1  0  0  0  0
 88 89  1  0  0  0  0
 89 90  1  0  0  0  0
 90 91  1  0  0  0  0
 91 92  1  0  0  0  0
 92 93  1  0  0  0  0
 91 94  2  0  0  0  0
 94 95  1  0  0  0  0
 95 96  1  0  0  0  0
 94 97  1  0  0  0  0
 88 98  2  0  0  0  0
 98 99  1  0  0  0  0
 87100  1  0  0  0  0
100101  2  0  0  0  0
101102  1  0  0  0  0
101103  1  0  0  0  0
103104  2  0  0  0  0
104105  1  0  0  0  0
105106  2  0  0  0  0
106107  1  0  0  0  0
107108  1  0  0  0  0
108109  1  0  0  0  0
109110  1  0  0  0  0
110111  1  0  0  0  0
109112  2  0  0  0  0
112113  1  0  0  0  0
112114  1  0  0  0  0
114115  1  0  0  0  0
106116  1  0  0  0  0
116117  2  0  0  0  0
117118  1  0  0  0  0
118119  1  0  0  0  0
119120  1  0  0  0  0
120121  1  0  0  0  0
121122  1  0  0  0  0
122123  1  0  0  0  0
121124  2  0  0  0  0
124125  1  0  0  0  0
125126  1  0  0  0  0
124127  1  0  0  0  0
118128  2  0  0  0  0
128129  1  0  0  0  0
117130  1  0  0  0  0
130131  2  0  0  0  0
131132  1  0  0  0  0
131133  1  0  0  0  0
133134  2  0  0  0  0
134135  1  0  0  0  0
135136  2  0  0  0  0
136137  1  0  0  0  0
137138  1  0  0  0  0
138139  1  0  0  0  0
139140  1  0  0  0  0
140141  1  0  0  0  0
139142  2  0  0  0  0
142143  1  0  0  0  0
142144  1  0  0  0  0
144145  1  0  0  0  0
136146  1  0  0  0  0
146147  2  0  0  0  0
147148  1  0  0  0  0
148149  1  0  0  0  0
149150  1  0  0  0  0
150151  1  0  0  0  0
151152  1  0  0  0  0
152153  1  0  0  0  0
151154  2  0  0  0  0
154155  1  0  0  0  0
155156  1  0  0  0  0
154157  1  0  0  0  0
148158  2  0  0  0  0
158159  1  0  0  0  0
147160  1  0  0  0  0
160161  2  0  0  0  0
161162  1  0  0  0  0
 27  1  1  0  0  0  0
 35 31  2  0  0  0  0
 69 43  1  0  0  0  0
 99 73  1  0  0  0  0
129103  1  0  0  0  0
159133  1  0  0  0  0
 26  3  1  0  0  0  0
 40 34  1  0  0  0  0
 68 45  1  0  0  0  0
 98 75  1  0  0  0  0
128105  1  0  0  0  0
158135  1  0  0  0  0
 12  5  2  0  0  0  0
 30 14  1  0  0  0  0
 54 47  2  0  0  0  0
 72 56  1  0  0  0  0
 84 77  2  0  0  0  0
102 86  1  0  0  0  0
114107  2  0  0  0  0
132116  1  0  0  0  0
144137  2  0  0  0  0
162146  1  0  0  0  0
 23 17  2  0  0  0  0
 65 59  2  0  0  0  0
 95 89  2  0  0  0  0
125119  2  0  0  0  0
155149  2  0  0  0  0
  1163  1  0  0  0  0
  2164  1  0  0  0  0
  8165  1  0  0  0  0
  8166  1  0  0  0  0
  9167  1  0  0  0  0
  9168  1  0  0  0  0
  9169  1  0  0  0  0
 20170  1  0  0  0  0
 20171  1  0  0  0  0
 21172  1  0  0  0  0
 21173  1  0  0  0  0
 21174  1  0  0  0  0
 28175  1  0  0  0  0
 36176  1  0  0  0  0
 36177  1  0  0  0  0
 37178  1  0  0  0  0
 37179  1  0  0  0  0
 38180  1  0  0  0  0
 39181  1  0  0  0  0
 39182  1  0  0  0  0
 39183  1  0  0  0  0
 40184  1  0  0  0  0
 40185  1  0  0  0  0
 41186  1  0  0  0  0
 42187  1  0  0  0  0
 44188  1  0  0  0  0
 50189  1  0  0  0  0
 50190  1  0  0  0  0
 51191  1  0  0  0  0
 51192  1  0  0  0  0
 51193  1  0  0  0  0
 62194  1  0  0  0  0
 62195  1  0  0  0  0
 63196  1  0  0  0  0
 63197  1  0  0  0  0
 63198  1  0  0  0  0
 70199  1  0  0  0  0
 74200  1  0  0  0  0
 80201  1  0  0  0  0
 80202  1  0  0  0  0
 81203  1  0  0  0  0
 81204  1  0  0  0  0
 81205  1  0  0  0  0
 92206  1  0  0  0  0
 92207  1  0  0  0  0
 93208  1  0  0  0  0
 93209  1  0  0  0  0
 93210  1  0  0  0  0
100211  1  0  0  0  0
104212  1  0  0  0  0
110213  1  0  0  0  0
110214  1  0  0  0  0
111215  1  0  0  0  0
111216  1  0  0  0  0
111217  1  0  0  0  0
122218  1  0  0  0  0
122219  1  0  0  0  0
123220  1  0  0  0  0
123221  1  0  0  0  0
123222  1  0  0  0  0
130223  1  0  0  0  0
134224  1  0  0  0  0
140225  1  0  0  0  0
140226  1  0  0  0  0
141227  1  0  0  0  0
141228  1  0  0  0  0
141229  1  0  0  0  0
152230  1  0  0  0  0
152231  1  0  0  0  0
153232  1  0  0  0  0
153233  1  0  0  0  0
153234  1  0  0  0  0
160235  1  0  0  0  0
161236  1  0  0  0  0
M  END
