134

C          5.37910       13.09380        3.77920
S          4.61120       12.12930        5.00070
C          4.52330       10.80210        3.90060
C          4.08640        9.47630        3.80830
C          4.38820        9.04370        2.50340
N          4.97310       10.06490        1.79920
C          5.50310        9.98210        0.46470
C          6.94790        9.48430        0.46110
C          5.07490       11.13430        2.65130
C          5.56360       12.45450        2.59340
C          4.00800        7.72010        2.24910
C          3.41490        7.14150        3.35000
S          3.32140        8.23340        4.72610
C          2.89280        5.82130        3.45710
S          2.07690        5.31890        4.93230
C          1.77240        3.76440        4.25050
C          1.16450        2.53890        4.53650
C          1.33800        1.72790        3.40010
N          2.01120        2.42380        2.42890
C          2.44660        1.90700        1.15940
C          3.79410        1.19500        1.26940
C          2.29420        3.66240        2.94580
C          2.92650        4.82870        2.50140
C          0.75750        0.45860        3.51880
C          0.13740        0.29110        4.73430
S          0.27070        1.71780        5.76230
C         -0.63480       -0.82300        5.19640
S         -1.97830       -0.50550        6.26990
C         -2.45910       -2.17580        6.22700
C         -1.58360       -2.92540        5.48560
C         -0.54880       -2.16390        4.89220
C          0.54440       -2.80600        4.09260
C          0.25320       -4.27580        3.78760
C         -0.33520       -5.02000        4.98670
C          0.58620       -4.98740        6.20300
C         -1.69870       -4.40560        5.30680
C         -3.72960       -2.61270        6.78210
C         -4.69900       -3.12370        6.00650
C         -4.61160       -3.15670        4.56890
S         -5.27780       -4.51140        3.65630
C         -4.63600       -3.86080        2.18840
C         -4.49760       -4.12710        0.82230
C         -3.74810       -3.06460        0.27610
N         -3.42740       -2.16890        1.26060
C         -2.68310       -0.94620        1.11710
C         -3.60240        0.25190        0.88950
C         -3.97650       -2.63880        2.42320
C         -3.98340       -2.24100        3.76250
C         -3.49230       -3.20200       -1.09010
C         -4.03400       -4.35980       -1.60490
S         -4.89190       -5.29830       -0.38280
C         -3.92410       -4.78240       -2.95820
S         -3.12270       -3.71440       -4.08210
C         -3.31820       -4.84990       -5.38540
C         -4.00860       -5.96620       -4.95840
C         -4.32700       -5.94500       -3.58450
C         -5.03860       -7.07060       -2.90600
C         -5.09970       -8.31550       -3.78870
C         -5.46500       -7.97700       -5.23460
C         -6.80960       -7.26100       -5.33810
C         -4.34610       -7.12630       -5.84070
C         -2.90930       -4.55480       -6.72560
C         -1.90240       -3.76760       -7.15320
C         -0.83160       -3.17220       -6.40590
S         -0.14000       -3.89650       -4.98780
C          1.07990       -2.65670       -4.87560
C          0.96120       -1.75540       -5.91230
C         -0.11320       -2.05380       -6.77670
C         -0.44080       -1.22170       -7.97860
C          0.28450        0.12020       -7.93420
C          1.76010       -0.08600       -7.59730
C          2.55800        1.20230       -7.77200
C          1.87430       -0.59540       -6.15890
C          1.99420       -2.74600       -3.76960
C          2.79410       -1.79330       -3.29330
H          5.65260       14.10020        4.02650
H          5.44760       10.97570        0.01140
H          4.87070        9.30200       -0.11300
H          7.32270        9.42830       -0.55740
H          7.00550        8.49650        0.91220
H          7.57970       10.16110        1.03130
H          6.02490       12.90960        1.73560
H          4.14950        7.20610        1.31650
H          2.51980        2.74300        0.45850
H          1.68600        1.21220        0.79080
H          4.09660        0.81370        0.29780
H          4.55450        1.88360        1.63000
H          3.72320        0.36360        1.96680
H          3.38800        4.95190        1.53920
H          0.75780       -0.28020        2.73990
H          1.48160       -2.71570        4.65030
H          0.68630       -2.28050        3.14780
H         -0.46320       -4.33540        2.96400
H          1.17560       -4.76030        3.46050
H         -0.48690       -6.06630        4.69800
H          1.57850       -5.34800        5.94010
H          0.67450       -3.97840        6.59710
H          0.18860       -5.62400        6.99040
H         -2.12660       -4.85410        6.20580
H         -2.38620       -4.61680        4.48160
H         -3.87950       -2.50850        7.84800
H         -5.59000       -3.54200        6.45400
H         -1.99880       -1.06170        0.27200
H         -2.09460       -0.79630        2.02820
H         -4.28800        0.36220        1.72610
H         -4.18340        0.11370       -0.01950
H         -3.01530        1.16150        0.79720
H         -3.57200       -1.31830        4.12430
H         -2.93640       -2.50770       -1.69400
H         -4.53160       -7.31580       -1.96900
H         -6.04960       -6.74730       -2.63970
H         -4.12370       -8.80650       -3.78520
H         -5.82590       -9.01550       -3.37220
H         -5.53080       -8.91370       -5.80020
H         -6.75130       -6.26310       -4.91190
H         -7.58070       -7.82000       -4.81290
H         -7.10650       -7.16680       -6.38070
H         -3.45040       -7.74110       -5.97740
H         -4.64480       -6.76950       -6.82960
H         -3.53020       -5.01270       -7.48740
H         -1.84520       -3.57570       -8.21850
H         -0.13790       -1.76870       -8.87900
H         -1.52020       -1.06430       -8.04000
H          0.18320        0.62120       -8.89890
H         -0.17060        0.75950       -7.17410
H          2.16820       -0.84700       -8.27220
H          3.60070        1.04670       -7.50300
H          2.51780        1.54030       -8.80500
H          2.15310        1.98950       -7.13870
H          1.61570        0.22010       -5.47420
H          2.90500       -0.89190       -5.94870
H          1.98000       -3.70870       -3.27180
H          3.43350       -1.98820       -2.44930
H          2.83420       -0.80020       -3.70050
