
  xtb     02282217203D
 energy: -216.221000849662 gnorm: 0.000893995077 xtb: 6.4.1 (unknown)
143154  0     0  0            999 V2000
    0.7726    5.6528    0.6405 C   0  0  0  0  0  0  0  0  0  0  0  0
   -0.1368    5.4416    2.0766 S   0  0  0  0  0  0  0  0  0  0  0  0
   -0.1092    3.7079    1.8871 C   0  0  0  0  0  0  0  0  0  0  0  0
    0.5914    3.3535    0.7513 C   0  0  0  0  0  0  0  0  0  0  0  0
    1.0915    4.4706    0.0412 C   0  0  0  0  0  0  0  0  0  0  0  0
    1.9146    4.3534   -1.2059 C   0  0  0  0  0  0  0  0  0  0  0  0
    1.7728    2.9589   -1.8376 C   0  0  0  0  0  0  0  0  0  0  0  0
    0.4919    2.8456   -2.4953 C   0  0  0  0  0  0  0  0  0  0  0  0
   -0.5180    2.7937   -3.0282 N   0  0  0  0  0  0  0  0  0  0  0  0
    1.9248    1.8677   -0.7562 C   0  0  0  0  0  0  0  0  0  0  0  0
    3.1985    2.0383   -0.1005 C   0  0  0  0  0  0  0  0  0  0  0  0
    4.2071    2.1830    0.4175 N   0  0  0  0  0  0  0  0  0  0  0  0
    0.7875    1.9491    0.2730 C   0  0  0  0  0  0  0  0  0  0  0  0
   -0.7567    2.8430    2.8145 C   0  0  0  0  0  0  0  0  0  0  0  0
   -1.4084    3.2439    3.9273 C   0  0  0  0  0  0  0  0  0  0  0  0
   -2.0681    2.3523    4.8208 C   0  0  0  0  0  0  0  0  0  0  0  0
   -2.0698    0.6423    4.5191 S   0  0  0  0  0  0  0  0  0  0  0  0
   -3.0521    0.3243    5.9158 C   0  0  0  0  0  0  0  0  0  0  0  0
   -3.3271    1.5020    6.5880 C   0  0  0  0  0  0  0  0  0  0  0  0
   -2.7884    2.6443    5.9652 C   0  0  0  0  0  0  0  0  0  0  0  0
   -2.9728    4.0296    6.5053 C   0  0  0  0  0  0  0  0  0  0  0  0
   -4.1301    4.0743    7.5128 C   0  0  0  0  0  0  0  0  0  0  0  0
   -4.1380    5.3560    8.1812 C   0  0  0  0  0  0  0  0  0  0  0  0
   -4.1090    6.3696    8.7072 N   0  0  0  0  0  0  0  0  0  0  0  0
   -3.9656    2.9325    8.5374 C   0  0  0  0  0  0  0  0  0  0  0  0
   -4.9398    3.0587    9.5978 C   0  0  0  0  0  0  0  0  0  0  0  0
   -5.7331    3.1329   10.4161 N   0  0  0  0  0  0  0  0  0  0  0  0
   -4.1516    1.5786    7.8374 C   0  0  0  0  0  0  0  0  0  0  0  0
   -3.4720   -0.9991    6.2784 C   0  0  0  0  0  0  0  0  0  0  0  0
   -3.3308   -2.1116    5.5416 C   0  0  0  0  0  0  0  0  0  0  0  0
   -2.7430   -2.0993    4.2079 C   0  0  0  0  0  0  0  0  0  0  0  0
   -1.0643   -2.4562    3.9723 S   0  0  0  0  0  0  0  0  0  0  0  0
   -1.1459   -1.9631    2.2937 C   0  0  0  0  0  0  0  0  0  0  0  0
   -2.4319   -1.5986    1.9527 C   0  0  0  0  0  0  0  0  0  0  0  0
   -3.3338   -1.6939    3.0414 C   0  0  0  0  0  0  0  0  0  0  0  0
   -4.7727   -1.2896    2.9564 C   0  0  0  0  0  0  0  0  0  0  0  0
   -5.2096   -1.1043    1.5067 C   0  0  0  0  0  0  0  0  0  0  0  0
   -4.1887   -0.2869    0.7136 C   0  0  0  0  0  0  0  0  0  0  0  0
   -3.9653    1.1031    1.3035 C   0  0  0  0  0  0  0  0  0  0  0  0
   -2.8713   -1.0636    0.6287 C   0  0  0  0  0  0  0  0  0  0  0  0
    0.1283   -1.8397    1.6454 C   0  0  0  0  0  0  0  0  0  0  0  0
    0.4681   -1.6708    0.3581 C   0  0  0  0  0  0  0  0  0  0  0  0
   -0.3274   -1.7772   -0.8430 C   0  0  0  0  0  0  0  0  0  0  0  0
   -0.3129   -0.4566   -1.9755 S   0  0  0  0  0  0  0  0  0  0  0  0
   -1.1644   -1.3849   -3.1719 C   0  0  0  0  0  0  0  0  0  0  0  0
   -1.4895   -2.6214   -2.6687 C   0  0  0  0  0  0  0  0  0  0  0  0
   -1.0177   -2.8453   -1.3512 C   0  0  0  0  0  0  0  0  0  0  0  0
   -1.1651   -4.1527   -0.6369 C   0  0  0  0  0  0  0  0  0  0  0  0
   -2.1908   -5.0541   -1.3381 C   0  0  0  0  0  0  0  0  0  0  0  0
   -2.0882   -6.3923   -0.8021 C   0  0  0  0  0  0  0  0  0  0  0  0
   -1.9713   -7.4453   -0.3750 N   0  0  0  0  0  0  0  0  0  0  0  0
   -1.9222   -5.0640   -2.8586 C   0  0  0  0  0  0  0  0  0  0  0  0
   -2.7536   -6.0479   -3.5123 C   0  0  0  0  0  0  0  0  0  0  0  0
   -3.4406   -6.7976   -4.0332 N   0  0  0  0  0  0  0  0  0  0  0  0
   -2.2176   -3.6752   -3.4438 C   0  0  0  0  0  0  0  0  0  0  0  0
   -1.5286   -0.8187   -4.4448 C   0  0  0  0  0  0  0  0  0  0  0  0
   -0.8001    0.0135   -5.2169 C   0  0  0  0  0  0  0  0  0  0  0  0
    0.5704    0.3933   -5.0661 C   0  0  0  0  0  0  0  0  0  0  0  0
    1.6867   -0.5641   -4.1475 S   0  0  0  0  0  0  0  0  0  0  0  0
    3.0098    0.4966   -4.5030 C   0  0  0  0  0  0  0  0  0  0  0  0
    2.5905    1.5264   -5.3348 C   0  0  0  0  0  0  0  0  0  0  0  0
    1.2256    1.4499   -5.6727 C   0  0  0  0  0  0  0  0  0  0  0  0
    0.5545    2.4558   -6.5518 C   0  0  0  0  0  0  0  0  0  0  0  0
    1.5777    3.2899   -7.3193 C   0  0  0  0  0  0  0  0  0  0  0  0
    2.6967    3.7990   -6.4094 C   0  0  0  0  0  0  0  0  0  0  0  0
    2.1605    4.6775   -5.2812 C   0  0  0  0  0  0  0  0  0  0  0  0
    3.4866    2.6059   -5.8606 C   0  0  0  0  0  0  0  0  0  0  0  0
    4.2916    0.3626   -3.8873 C   0  0  0  0  0  0  0  0  0  0  0  0
    4.7282   -0.5005   -2.9442 C   0  0  0  0  0  0  0  0  0  0  0  0
    4.1104   -1.6623   -2.3571 C   0  0  0  0  0  0  0  0  0  0  0  0
    3.2832   -2.8918   -3.2626 S   0  0  0  0  0  0  0  0  0  0  0  0
    3.0178   -3.8553   -1.8340 C   0  0  0  0  0  0  0  0  0  0  0  0
    3.5893   -3.2614   -0.7279 C   0  0  0  0  0  0  0  0  0  0  0  0
    4.2204   -2.0353   -1.0323 C   0  0  0  0  0  0  0  0  0  0  0  0
    4.9391   -1.2295    0.0046 C   0  0  0  0  0  0  0  0  0  0  0  0
    4.4862   -1.6202    1.4078 C   0  0  0  0  0  0  0  0  0  0  0  0
    4.5765   -3.1341    1.5858 C   0  0  0  0  0  0  0  0  0  0  0  0
    4.3227   -3.5415    3.0339 C   0  0  0  0  0  0  0  0  0  0  0  0
    3.5719   -3.8252    0.6589 C   0  0  0  0  0  0  0  0  0  0  0  0
    2.2834   -5.0769   -2.0190 C   0  0  0  0  0  0  0  0  0  0  0  0
    1.7890   -5.8942   -1.0882 C   0  0  0  0  0  0  0  0  0  0  0  0
    1.0271    6.6426    0.3174 H   0  0  0  0  0  0  0  0  0  0  0  0
    2.9682    4.5171   -0.9554 H   0  0  0  0  0  0  0  0  0  0  0  0
    1.6213    5.1242   -1.9233 H   0  0  0  0  0  0  0  0  0  0  0  0
    2.5477    2.8194   -2.6025 H   0  0  0  0  0  0  0  0  0  0  0  0
    1.9188    0.8785   -1.2307 H   0  0  0  0  0  0  0  0  0  0  0  0
    1.0039    1.2827    1.1116 H   0  0  0  0  0  0  0  0  0  0  0  0
   -0.1334    1.5940   -0.2019 H   0  0  0  0  0  0  0  0  0  0  0  0
   -0.7139    1.7858    2.5843 H   0  0  0  0  0  0  0  0  0  0  0  0
   -1.4508    4.2981    4.1668 H   0  0  0  0  0  0  0  0  0  0  0  0
   -3.1716    4.7305    5.6910 H   0  0  0  0  0  0  0  0  0  0  0  0
   -2.0499    4.3563    6.9988 H   0  0  0  0  0  0  0  0  0  0  0  0
   -5.0876    3.9509    6.9910 H   0  0  0  0  0  0  0  0  0  0  0  0
   -2.9631    2.9919    8.9794 H   0  0  0  0  0  0  0  0  0  0  0  0
   -3.8744    0.7769    8.5264 H   0  0  0  0  0  0  0  0  0  0  0  0
   -5.2106    1.4428    7.5878 H   0  0  0  0  0  0  0  0  0  0  0  0
   -3.9486   -1.0795    7.2461 H   0  0  0  0  0  0  0  0  0  0  0  0
   -3.6523   -3.0638    5.9417 H   0  0  0  0  0  0  0  0  0  0  0  0
   -4.9110   -0.3552    3.5086 H   0  0  0  0  0  0  0  0  0  0  0  0
   -5.3966   -2.0420    3.4459 H   0  0  0  0  0  0  0  0  0  0  0  0
   -5.3169   -2.0837    1.0337 H   0  0  0  0  0  0  0  0  0  0  0  0
   -6.1844   -0.6140    1.4805 H   0  0  0  0  0  0  0  0  0  0  0  0
   -4.5696   -0.1623   -0.3067 H   0  0  0  0  0  0  0  0  0  0  0  0
   -3.3596    1.7038    0.6278 H   0  0  0  0  0  0  0  0  0  0  0  0
   -4.9146    1.6123    1.4533 H   0  0  0  0  0  0  0  0  0  0  0  0
   -3.4462    1.0428    2.2556 H   0  0  0  0  0  0  0  0  0  0  0  0
   -2.9948   -1.8963   -0.0712 H   0  0  0  0  0  0  0  0  0  0  0  0
   -2.0930   -0.4151    0.2257 H   0  0  0  0  0  0  0  0  0  0  0  0
    0.9463   -1.8243    2.3578 H   0  0  0  0  0  0  0  0  0  0  0  0
    1.5064   -1.4287    0.1539 H   0  0  0  0  0  0  0  0  0  0  0  0
   -1.4623   -3.9874    0.4017 H   0  0  0  0  0  0  0  0  0  0  0  0
   -0.1926   -4.6601   -0.6226 H   0  0  0  0  0  0  0  0  0  0  0  0
   -3.2096   -4.6873   -1.1579 H   0  0  0  0  0  0  0  0  0  0  0  0
   -0.8700   -5.3235   -3.0304 H   0  0  0  0  0  0  0  0  0  0  0  0
   -1.9182   -3.6455   -4.4939 H   0  0  0  0  0  0  0  0  0  0  0  0
   -3.2977   -3.4870   -3.4048 H   0  0  0  0  0  0  0  0  0  0  0  0
   -2.5200   -1.0875   -4.7902 H   0  0  0  0  0  0  0  0  0  0  0  0
   -1.2848    0.4268   -6.0925 H   0  0  0  0  0  0  0  0  0  0  0  0
   -0.1052    1.9476   -7.2599 H   0  0  0  0  0  0  0  0  0  0  0  0
   -0.0775    3.1004   -5.9342 H   0  0  0  0  0  0  0  0  0  0  0  0
    2.0228    2.6765   -8.1066 H   0  0  0  0  0  0  0  0  0  0  0  0
    1.0743    4.1323   -7.7971 H   0  0  0  0  0  0  0  0  0  0  0  0
    3.3804    4.4069   -7.0133 H   0  0  0  0  0  0  0  0  0  0  0  0
    1.5830    5.5042   -5.6888 H   0  0  0  0  0  0  0  0  0  0  0  0
    1.5192    4.1076   -4.6143 H   0  0  0  0  0  0  0  0  0  0  0  0
    2.9840    5.0914   -4.7012 H   0  0  0  0  0  0  0  0  0  0  0  0
    4.1031    2.1837   -6.6617 H   0  0  0  0  0  0  0  0  0  0  0  0
    4.1693    2.9504   -5.0791 H   0  0  0  0  0  0  0  0  0  0  0  0
    4.9914    1.1365   -4.1789 H   0  0  0  0  0  0  0  0  0  0  0  0
    5.7062   -0.2894   -2.5245 H   0  0  0  0  0  0  0  0  0  0  0  0
    6.0141   -1.4203   -0.0914 H   0  0  0  0  0  0  0  0  0  0  0  0
    4.7852   -0.1620   -0.1581 H   0  0  0  0  0  0  0  0  0  0  0  0
    3.4557   -1.2941    1.5697 H   0  0  0  0  0  0  0  0  0  0  0  0
    5.1128   -1.1144    2.1439 H   0  0  0  0  0  0  0  0  0  0  0  0
    5.5869   -3.4516    1.3042 H   0  0  0  0  0  0  0  0  0  0  0  0
    5.0652   -3.0960    3.6917 H   0  0  0  0  0  0  0  0  0  0  0  0
    3.3372   -3.2108    3.3569 H   0  0  0  0  0  0  0  0  0  0  0  0
    4.3732   -4.6226    3.1423 H   0  0  0  0  0  0  0  0  0  0  0  0
    2.5646   -3.7109    1.0752 H   0  0  0  0  0  0  0  0  0  0  0  0
    3.7941   -4.8942    0.6178 H   0  0  0  0  0  0  0  0  0  0  0  0
    2.1135   -5.3185   -3.0624 H   0  0  0  0  0  0  0  0  0  0  0  0
    1.9000   -5.7260   -0.0331 H   0  0  0  0  0  0  0  0  0  0  0  0
    1.2551   -6.7874   -1.3681 H   0  0  0  0  0  0  0  0  0  0  0  0
  1  2  1  0  0  0  0
  2  3  1  0  0  0  0
  3  4  2  0  0  0  0
  4  5  1  0  0  0  0
  5  6  1  0  0  0  0
  6  7  1  0  0  0  0
  7  8  1  0  0  0  0
  8  9  3  0  0  0  0
  7 10  1  0  0  0  0
 10 11  1  0  0  0  0
 11 12  3  0  0  0  0
 10 13  1  0  0  0  0
  3 14  1  0  0  0  0
 14 15  2  0  0  0  0
 15 16  1  0  0  0  0
 16 17  1  0  0  0  0
 17 18  1  0  0  0  0
 18 19  2  0  0  0  0
 19 20  1  0  0  0  0
 20 21  1  0  0  0  0
 21 22  1  0  0  0  0
 22 23  1  0  0  0  0
 23 24  3  0  0  0  0
 22 25  1  0  0  0  0
 25 26  1  0  0  0  0
 26 27  3  0  0  0  0
 25 28  1  0  0  0  0
 18 29  1  0  0  0  0
 29 30  2  0  0  0  0
 30 31  1  0  0  0  0
 31 32  1  0  0  0  0
 32 33  1  0  0  0  0
 33 34  2  0  0  0  0
 34 35  1  0  0  0  0
 35 36  1  0  0  0  0
 36 37  1  0  0  0  0
 37 38  1  0  0  0  0
 38 39  1  0  0  0  0
 38 40  1  0  0  0  0
 33 41  1  0  0  0  0
 41 42  2  0  0  0  0
 42 43  1  0  0  0  0
 43 44  1  0  0  0  0
 44 45  1  0  0  0  0
 45 46  2  0  0  0  0
 46 47  1  0  0  0  0
 47 48  1  0  0  0  0
 48 49  1  0  0  0  0
 49 50  1  0  0  0  0
 50 51  3  0  0  0  0
 49 52  1  0  0  0  0
 52 53  1  0  0  0  0
 53 54  3  0  0  0  0
 52 55  1  0  0  0  0
 45 56  1  0  0  0  0
 56 57  2  0  0  0  0
 57 58  1  0  0  0  0
 58 59  1  0  0  0  0
 59 60  1  0  0  0  0
 60 61  2  0  0  0  0
 61 62  1  0  0  0  0
 62 63  1  0  0  0  0
 63 64  1  0  0  0  0
 64 65  1  0  0  0  0
 65 66  1  0  0  0  0
 65 67  1  0  0  0  0
 60 68  1  0  0  0  0
 68 69  2  0  0  0  0
 69 70  1  0  0  0  0
 70 71  1  0  0  0  0
 71 72  1  0  0  0  0
 72 73  2  0  0  0  0
 73 74  1  0  0  0  0
 74 75  1  0  0  0  0
 75 76  1  0  0  0  0
 76 77  1  0  0  0  0
 77 78  1  0  0  0  0
 77 79  1  0  0  0  0
 72 80  1  0  0  0  0
 80 81  2  0  0  0  0
  5  1  2  0  0  0  0
 20 16  2  0  0  0  0
 35 31  2  0  0  0  0
 47 43  2  0  0  0  0
 62 58  2  0  0  0  0
 74 70  2  0  0  0  0
 13  4  1  0  0  0  0
 28 19  1  0  0  0  0
 40 34  1  0  0  0  0
 55 46  1  0  0  0  0
 67 61  1  0  0  0  0
 79 73  1  0  0  0  0
  1 82  1  0  0  0  0
  6 83  1  0  0  0  0
  6 84  1  0  0  0  0
  7 85  1  0  0  0  0
 10 86  1  0  0  0  0
 13 87  1  0  0  0  0
 13 88  1  0  0  0  0
 14 89  1  0  0  0  0
 15 90  1  0  0  0  0
 21 91  1  0  0  0  0
 21 92  1  0  0  0  0
 22 93  1  0  0  0  0
 25 94  1  0  0  0  0
 28 95  1  0  0  0  0
 28 96  1  0  0  0  0
 29 97  1  0  0  0  0
 30 98  1  0  0  0  0
 36 99  1  0  0  0  0
 36100  1  0  0  0  0
 37101  1  0  0  0  0
 37102  1  0  0  0  0
 38103  1  0  0  0  0
 39104  1  0  0  0  0
 39105  1  0  0  0  0
 39106  1  0  0  0  0
 40107  1  0  0  0  0
 40108  1  0  0  0  0
 41109  1  0  0  0  0
 42110  1  0  0  0  0
 48111  1  0  0  0  0
 48112  1  0  0  0  0
 49113  1  0  0  0  0
 52114  1  0  0  0  0
 55115  1  0  0  0  0
 55116  1  0  0  0  0
 56117  1  0  0  0  0
 57118  1  0  0  0  0
 63119  1  0  0  0  0
 63120  1  0  0  0  0
 64121  1  0  0  0  0
 64122  1  0  0  0  0
 65123  1  0  0  0  0
 66124  1  0  0  0  0
 66125  1  0  0  0  0
 66126  1  0  0  0  0
 67127  1  0  0  0  0
 67128  1  0  0  0  0
 68129  1  0  0  0  0
 69130  1  0  0  0  0
 75131  1  0  0  0  0
 75132  1  0  0  0  0
 76133  1  0  0  0  0
 76134  1  0  0  0  0
 77135  1  0  0  0  0
 78136  1  0  0  0  0
 78137  1  0  0  0  0
 78138  1  0  0  0  0
 79139  1  0  0  0  0
 79140  1  0  0  0  0
 80141  1  0  0  0  0
 81142  1  0  0  0  0
 81143  1  0  0  0  0
M  END
