
  xtb     02282220353D
 energy: -201.629152256430 gnorm: 0.000599002952 xtb: 6.4.1 (unknown)
138151  0     0  0            999 V2000
    0.9428   -3.4161   -3.1207 C   0  0  0  0  0  0  0  0  0  0  0  0
    0.1215   -2.8488   -1.7320 S   0  0  0  0  0  0  0  0  0  0  0  0
    0.2867   -1.1919   -2.2503 C   0  0  0  0  0  0  0  0  0  0  0  0
    0.9544   -1.1242   -3.4588 C   0  0  0  0  0  0  0  0  0  0  0  0
    1.3132   -2.4025   -3.9522 C   0  0  0  0  0  0  0  0  0  0  0  0
    2.0136   -2.5918   -5.2605 C   0  0  0  0  0  0  0  0  0  0  0  0
    1.7537   -1.3876   -6.1593 C   0  0  0  0  0  0  0  0  0  0  0  0
    2.1618   -0.1084   -5.4315 C   0  0  0  0  0  0  0  0  0  0  0  0
    2.1211    1.0989   -6.3638 C   0  0  0  0  0  0  0  0  0  0  0  0
    1.2476    0.1289   -4.2247 C   0  0  0  0  0  0  0  0  0  0  0  0
   -0.2820   -0.2150   -1.3792 C   0  0  0  0  0  0  0  0  0  0  0  0
   -0.2137    1.1285   -1.4637 C   0  0  0  0  0  0  0  0  0  0  0  0
   -0.8392    2.0142   -0.5381 C   0  0  0  0  0  0  0  0  0  0  0  0
   -1.9594    1.4382    0.6674 S   0  0  0  0  0  0  0  0  0  0  0  0
   -2.1850    3.0464    1.2898 C   0  0  0  0  0  0  0  0  0  0  0  0
   -1.4464    3.9636    0.5840 C   0  0  0  0  0  0  0  0  0  0  0  0
   -0.6869    3.3826   -0.4537 C   0  0  0  0  0  0  0  0  0  0  0  0
    0.2357    4.1899   -1.3151 C   0  0  0  0  0  0  0  0  0  0  0  0
   -0.0564    5.6843   -1.1991 C   0  0  0  0  0  0  0  0  0  0  0  0
   -0.2061    6.0952    0.2652 C   0  0  0  0  0  0  0  0  0  0  0  0
   -0.2732    7.6112    0.4141 C   0  0  0  0  0  0  0  0  0  0  0  0
   -1.4665    5.4401    0.8300 C   0  0  0  0  0  0  0  0  0  0  0  0
   -3.1130    3.2846    2.3782 C   0  0  0  0  0  0  0  0  0  0  0  0
   -2.7915    3.7850    3.5821 C   0  0  0  0  0  0  0  0  0  0  0  0
   -1.4766    4.0282    4.0915 C   0  0  0  0  0  0  0  0  0  0  0  0
   -0.0490    3.5058    3.2464 S   0  0  0  0  0  0  0  0  0  0  0  0
    0.9724    3.9655    4.5744 C   0  0  0  0  0  0  0  0  0  0  0  0
    0.2352    4.5504    5.5838 C   0  0  0  0  0  0  0  0  0  0  0  0
   -1.1496    4.5597    5.3245 C   0  0  0  0  0  0  0  0  0  0  0  0
   -2.1366    5.1218    6.3010 C   0  0  0  0  0  0  0  0  0  0  0  0
   -1.5170    5.2578    7.6898 C   0  0  0  0  0  0  0  0  0  0  0  0
   -0.1639    5.9626    7.6075 C   0  0  0  0  0  0  0  0  0  0  0  0
    0.3681    6.3098    8.9943 C   0  0  0  0  0  0  0  0  0  0  0  0
    0.8206    5.0588    6.8637 C   0  0  0  0  0  0  0  0  0  0  0  0
    2.3988    3.8490    4.4985 C   0  0  0  0  0  0  0  0  0  0  0  0
    3.1288    2.9171    3.8521 C   0  0  0  0  0  0  0  0  0  0  0  0
    2.7147    1.6787    3.2633 C   0  0  0  0  0  0  0  0  0  0  0  0
    1.3090    0.7765    3.8220 S   0  0  0  0  0  0  0  0  0  0  0  0
    1.6799   -0.5122    2.7407 C   0  0  0  0  0  0  0  0  0  0  0  0
    1.2188   -1.7622    2.3243 C   0  0  0  0  0  0  0  0  0  0  0  0
    2.1161   -2.2191    1.3392 C   0  0  0  0  0  0  0  0  0  0  0  0
    3.1141   -1.2974    1.1592 N   0  0  0  0  0  0  0  0  0  0  0  0
    4.1593   -1.3498    0.1729 C   0  0  0  0  0  0  0  0  0  0  0  0
    3.7453   -0.6615   -1.1265 C   0  0  0  0  0  0  0  0  0  0  0  0
    2.8451   -0.2430    1.9958 C   0  0  0  0  0  0  0  0  0  0  0  0
    3.4329    0.9856    2.3124 C   0  0  0  0  0  0  0  0  0  0  0  0
    1.7755   -3.4682    0.8122 C   0  0  0  0  0  0  0  0  0  0  0  0
    0.6198   -3.9711    1.3701 C   0  0  0  0  0  0  0  0  0  0  0  0
   -0.0463   -2.9014    2.6015 S   0  0  0  0  0  0  0  0  0  0  0  0
   -0.0426   -5.1643    0.9605 C   0  0  0  0  0  0  0  0  0  0  0  0
    0.5164   -5.9462   -0.4985 S   0  0  0  0  0  0  0  0  0  0  0  0
   -0.7305   -7.1560   -0.3881 C   0  0  0  0  0  0  0  0  0  0  0  0
   -1.4819   -6.9814    0.7439 C   0  0  0  0  0  0  0  0  0  0  0  0
   -1.1225   -5.8362    1.4920 C   0  0  0  0  0  0  0  0  0  0  0  0
   -1.8563   -5.4414    2.7338 C   0  0  0  0  0  0  0  0  0  0  0  0
   -3.1600   -6.2220    2.8930 C   0  0  0  0  0  0  0  0  0  0  0  0
   -2.9526   -7.7093    2.6130 C   0  0  0  0  0  0  0  0  0  0  0  0
   -4.1882   -8.5242    2.9805 C   0  0  0  0  0  0  0  0  0  0  0  0
   -2.6139   -7.8783    1.1318 C   0  0  0  0  0  0  0  0  0  0  0  0
   -0.8415   -8.1956   -1.3890 C   0  0  0  0  0  0  0  0  0  0  0  0
   -0.9642   -7.9881   -2.7099 C   0  0  0  0  0  0  0  0  0  0  0  0
   -1.1862   -6.7266   -3.3602 C   0  0  0  0  0  0  0  0  0  0  0  0
   -1.9907   -5.3994   -2.5296 S   0  0  0  0  0  0  0  0  0  0  0  0
   -1.8841   -4.4277   -3.9467 C   0  0  0  0  0  0  0  0  0  0  0  0
   -2.1504   -3.1346   -4.4126 C   0  0  0  0  0  0  0  0  0  0  0  0
   -1.7039   -3.0853   -5.7436 C   0  0  0  0  0  0  0  0  0  0  0  0
   -1.1564   -4.2924   -6.0957 N   0  0  0  0  0  0  0  0  0  0  0  0
   -0.6864   -4.6670   -7.4018 C   0  0  0  0  0  0  0  0  0  0  0  0
   -1.8150   -5.2216   -8.2703 C   0  0  0  0  0  0  0  0  0  0  0  0
   -1.2734   -5.1209   -5.0073 C   0  0  0  0  0  0  0  0  0  0  0  0
   -0.8993   -6.4301   -4.6720 C   0  0  0  0  0  0  0  0  0  0  0  0
   -1.8974   -1.8259   -6.3453 C   0  0  0  0  0  0  0  0  0  0  0  0
   -2.4646   -0.9516   -5.4706 C   0  0  0  0  0  0  0  0  0  0  0  0
   -2.7920   -1.6160   -3.9029 S   0  0  0  0  0  0  0  0  0  0  0  0
    1.1015   -4.4687   -3.2492 H   0  0  0  0  0  0  0  0  0  0  0  0
    3.0909   -2.6921   -5.0887 H   0  0  0  0  0  0  0  0  0  0  0  0
    1.6702   -3.5151   -5.7321 H   0  0  0  0  0  0  0  0  0  0  0  0
    2.3183   -1.4871   -7.0890 H   0  0  0  0  0  0  0  0  0  0  0  0
    0.6909   -1.3376   -6.4044 H   0  0  0  0  0  0  0  0  0  0  0  0
    3.1890   -0.2359   -5.0697 H   0  0  0  0  0  0  0  0  0  0  0  0
    2.8153    0.9697   -7.1913 H   0  0  0  0  0  0  0  0  0  0  0  0
    2.3925    2.0059   -5.8277 H   0  0  0  0  0  0  0  0  0  0  0  0
    1.1206    1.2281   -6.7725 H   0  0  0  0  0  0  0  0  0  0  0  0
    0.2979    0.5561   -4.5667 H   0  0  0  0  0  0  0  0  0  0  0  0
    1.7225    0.8621   -3.5682 H   0  0  0  0  0  0  0  0  0  0  0  0
   -0.8281   -0.6356   -0.5425 H   0  0  0  0  0  0  0  0  0  0  0  0
    0.3407    1.6097   -2.2531 H   0  0  0  0  0  0  0  0  0  0  0  0
    1.2660    3.9968   -0.9955 H   0  0  0  0  0  0  0  0  0  0  0  0
    0.1526    3.8754   -2.3588 H   0  0  0  0  0  0  0  0  0  0  0  0
    0.7525    6.2483   -1.6690 H   0  0  0  0  0  0  0  0  0  0  0  0
   -0.9813    5.9200   -1.7310 H   0  0  0  0  0  0  0  0  0  0  0  0
    0.6583    5.7210    0.8252 H   0  0  0  0  0  0  0  0  0  0  0  0
   -0.3999    7.8855    1.4591 H   0  0  0  0  0  0  0  0  0  0  0  0
    0.6399    8.0743    0.0460 H   0  0  0  0  0  0  0  0  0  0  0  0
   -1.1127    8.0125   -0.1505 H   0  0  0  0  0  0  0  0  0  0  0  0
   -1.5555    5.6437    1.8980 H   0  0  0  0  0  0  0  0  0  0  0  0
   -2.3471    5.8722    0.3410 H   0  0  0  0  0  0  0  0  0  0  0  0
   -4.1432    3.0111    2.1859 H   0  0  0  0  0  0  0  0  0  0  0  0
   -3.5919    3.9752    4.2853 H   0  0  0  0  0  0  0  0  0  0  0  0
   -3.0224    4.4844    6.3523 H   0  0  0  0  0  0  0  0  0  0  0  0
   -2.4638    6.1068    5.9494 H   0  0  0  0  0  0  0  0  0  0  0  0
   -1.3771    4.2664    8.1264 H   0  0  0  0  0  0  0  0  0  0  0  0
   -2.1951    5.8181    8.3367 H   0  0  0  0  0  0  0  0  0  0  0  0
   -0.2895    6.8897    7.0361 H   0  0  0  0  0  0  0  0  0  0  0  0
    0.4695    5.4100    9.5979 H   0  0  0  0  0  0  0  0  0  0  0  0
    1.3434    6.7864    8.9222 H   0  0  0  0  0  0  0  0  0  0  0  0
   -0.3091    6.9906    9.5053 H   0  0  0  0  0  0  0  0  0  0  0  0
    1.7483    5.6009    6.6607 H   0  0  0  0  0  0  0  0  0  0  0  0
    1.0801    4.2064    7.5010 H   0  0  0  0  0  0  0  0  0  0  0  0
    2.9416    4.6435    4.9988 H   0  0  0  0  0  0  0  0  0  0  0  0
    4.1984    3.0854    3.7881 H   0  0  0  0  0  0  0  0  0  0  0  0
    4.3954   -2.3999   -0.0181 H   0  0  0  0  0  0  0  0  0  0  0  0
    5.0473   -0.8636    0.5890 H   0  0  0  0  0  0  0  0  0  0  0  0
    4.5631   -0.6878   -1.8418 H   0  0  0  0  0  0  0  0  0  0  0  0
    3.4777    0.3748   -0.9326 H   0  0  0  0  0  0  0  0  0  0  0  0
    2.8830   -1.1619   -1.5590 H   0  0  0  0  0  0  0  0  0  0  0  0
    4.3287    1.3775    1.8635 H   0  0  0  0  0  0  0  0  0  0  0  0
    2.3228   -3.9930    0.0500 H   0  0  0  0  0  0  0  0  0  0  0  0
   -1.2087   -5.6142    3.6000 H   0  0  0  0  0  0  0  0  0  0  0  0
   -2.0766   -4.3719    2.7076 H   0  0  0  0  0  0  0  0  0  0  0  0
   -3.5420   -6.0778    3.9052 H   0  0  0  0  0  0  0  0  0  0  0  0
   -3.9047   -5.8327    2.1951 H   0  0  0  0  0  0  0  0  0  0  0  0
   -2.1045   -8.0637    3.2101 H   0  0  0  0  0  0  0  0  0  0  0  0
   -5.0539   -8.1729    2.4225 H   0  0  0  0  0  0  0  0  0  0  0  0
   -4.0354   -9.5766    2.7505 H   0  0  0  0  0  0  0  0  0  0  0  0
   -4.4049   -8.4334    4.0425 H   0  0  0  0  0  0  0  0  0  0  0  0
   -2.3539   -8.9172    0.9121 H   0  0  0  0  0  0  0  0  0  0  0  0
   -3.4936   -7.6310    0.5283 H   0  0  0  0  0  0  0  0  0  0  0  0
   -0.7999   -9.2145   -1.0214 H   0  0  0  0  0  0  0  0  0  0  0  0
   -0.9259   -8.8407   -3.3772 H   0  0  0  0  0  0  0  0  0  0  0  0
   -0.2473   -3.7844   -7.8760 H   0  0  0  0  0  0  0  0  0  0  0  0
    0.0965   -5.4217   -7.2813 H   0  0  0  0  0  0  0  0  0  0  0  0
   -2.5968   -4.4753   -8.3912 H   0  0  0  0  0  0  0  0  0  0  0  0
   -1.4351   -5.4947   -9.2511 H   0  0  0  0  0  0  0  0  0  0  0  0
   -2.2489   -6.1027   -7.8033 H   0  0  0  0  0  0  0  0  0  0  0  0
   -0.4157   -7.1262   -5.3344 H   0  0  0  0  0  0  0  0  0  0  0  0
   -1.6473   -1.5766   -7.3614 H   0  0  0  0  0  0  0  0  0  0  0  0
   -2.7278    0.0717   -5.6522 H   0  0  0  0  0  0  0  0  0  0  0  0
  1  2  1  0  0  0  0
  2  3  1  0  0  0  0
  3  4  2  0  0  0  0
  4  5  1  0  0  0  0
  5  6  1  0  0  0  0
  6  7  1  0  0  0  0
  7  8  1  0  0  0  0
  8  9  1  0  0  0  0
  8 10  1  0  0  0  0
  3 11  1  0  0  0  0
 11 12  2  0  0  0  0
 12 13  1  0  0  0  0
 13 14  1  0  0  0  0
 14 15  1  0  0  0  0
 15 16  2  0  0  0  0
 16 17  1  0  0  0  0
 17 18  1  0  0  0  0
 18 19  1  0  0  0  0
 19 20  1  0  0  0  0
 20 21  1  0  0  0  0
 20 22  1  0  0  0  0
 15 23  1  0  0  0  0
 23 24  2  0  0  0  0
 24 25  1  0  0  0  0
 25 26  1  0  0  0  0
 26 27  1  0  0  0  0
 27 28  2  0  0  0  0
 28 29  1  0  0  0  0
 29 30  1  0  0  0  0
 30 31  1  0  0  0  0
 31 32  1  0  0  0  0
 32 33  1  0  0  0  0
 32 34  1  0  0  0  0
 27 35  1  0  0  0  0
 35 36  2  0  0  0  0
 36 37  1  0  0  0  0
 37 38  1  0  0  0  0
 38 39  1  0  0  0  0
 39 40  1  0  0  0  0
 40 41  2  0  0  0  0
 41 42  1  0  0  0  0
 42 43  1  0  0  0  0
 43 44  1  0  0  0  0
 42 45  1  0  0  0  0
 45 46  1  0  0  0  0
 41 47  1  0  0  0  0
 47 48  2  0  0  0  0
 48 49  1  0  0  0  0
 48 50  1  0  0  0  0
 50 51  1  0  0  0  0
 51 52  1  0  0  0  0
 52 53  2  0  0  0  0
 53 54  1  0  0  0  0
 54 55  1  0  0  0  0
 55 56  1  0  0  0  0
 56 57  1  0  0  0  0
 57 58  1  0  0  0  0
 57 59  1  0  0  0  0
 52 60  1  0  0  0  0
 60 61  2  0  0  0  0
 61 62  1  0  0  0  0
 62 63  1  0  0  0  0
 63 64  1  0  0  0  0
 64 65  1  0  0  0  0
 65 66  2  0  0  0  0
 66 67  1  0  0  0  0
 67 68  1  0  0  0  0
 68 69  1  0  0  0  0
 67 70  1  0  0  0  0
 70 71  1  0  0  0  0
 66 72  1  0  0  0  0
 72 73  2  0  0  0  0
 73 74  1  0  0  0  0
  5  1  2  0  0  0  0
 17 13  2  0  0  0  0
 29 25  2  0  0  0  0
 46 37  2  0  0  0  0
 54 50  2  0  0  0  0
 71 62  2  0  0  0  0
 10  4  1  0  0  0  0
 22 16  1  0  0  0  0
 34 28  1  0  0  0  0
 45 39  2  0  0  0  0
 59 53  1  0  0  0  0
 70 64  2  0  0  0  0
 49 40  1  0  0  0  0
 74 65  1  0  0  0  0
  1 75  1  0  0  0  0
  6 76  1  0  0  0  0
  6 77  1  0  0  0  0
  7 78  1  0  0  0  0
  7 79  1  0  0  0  0
  8 80  1  0  0  0  0
  9 81  1  0  0  0  0
  9 82  1  0  0  0  0
  9 83  1  0  0  0  0
 10 84  1  0  0  0  0
 10 85  1  0  0  0  0
 11 86  1  0  0  0  0
 12 87  1  0  0  0  0
 18 88  1  0  0  0  0
 18 89  1  0  0  0  0
 19 90  1  0  0  0  0
 19 91  1  0  0  0  0
 20 92  1  0  0  0  0
 21 93  1  0  0  0  0
 21 94  1  0  0  0  0
 21 95  1  0  0  0  0
 22 96  1  0  0  0  0
 22 97  1  0  0  0  0
 23 98  1  0  0  0  0
 24 99  1  0  0  0  0
 30100  1  0  0  0  0
 30101  1  0  0  0  0
 31102  1  0  0  0  0
 31103  1  0  0  0  0
 32104  1  0  0  0  0
 33105  1  0  0  0  0
 33106  1  0  0  0  0
 33107  1  0  0  0  0
 34108  1  0  0  0  0
 34109  1  0  0  0  0
 35110  1  0  0  0  0
 36111  1  0  0  0  0
 43112  1  0  0  0  0
 43113  1  0  0  0  0
 44114  1  0  0  0  0
 44115  1  0  0  0  0
 44116  1  0  0  0  0
 46117  1  0  0  0  0
 47118  1  0  0  0  0
 55119  1  0  0  0  0
 55120  1  0  0  0  0
 56121  1  0  0  0  0
 56122  1  0  0  0  0
 57123  1  0  0  0  0
 58124  1  0  0  0  0
 58125  1  0  0  0  0
 58126  1  0  0  0  0
 59127  1  0  0  0  0
 59128  1  0  0  0  0
 60129  1  0  0  0  0
 61130  1  0  0  0  0
 68131  1  0  0  0  0
 68132  1  0  0  0  0
 69133  1  0  0  0  0
 69134  1  0  0  0  0
 69135  1  0  0  0  0
 71136  1  0  0  0  0
 72137  1  0  0  0  0
 73138  1  0  0  0  0
M  END
