232

C         -4.97230      -10.59810       14.55000
C         -5.13260       -9.28240       14.30380
C         -5.04830       -8.96290       12.91550
C         -5.16860       -7.70570       12.30550
C         -5.46560       -6.49680       13.08530
C         -6.55700       -6.45140       13.95130
C         -6.82450       -5.31480       14.68270
C         -6.02500       -4.17670       14.57920
S         -6.50540       -2.77640       15.54510
C         -4.92910       -1.99060       16.04530
C         -4.03610       -2.94220       16.81560
C         -4.95930       -4.22650       13.68620
F         -4.15620       -3.15540       13.49870
C         -4.67000       -5.36380       12.95940
C         -5.00020       -7.66280       10.92960
C         -4.75260       -8.81480       10.14290
C         -4.65250      -10.07550       10.75100
C         -4.42920      -11.28830        9.95460
C         -5.24370      -11.58400        8.86230
C         -5.02400      -12.71730        8.10980
C         -3.99120      -13.60210        8.41470
S         -3.83130      -15.04070        7.39790
C         -2.02260      -15.24200        7.19430
C         -1.37990      -14.01230        6.58520
C         -3.20720      -13.31070        9.52670
C         -3.40720      -12.17250       10.28160
F         -2.20950      -14.13830        9.90740
C         -4.78630      -10.11250       12.13190
S         -4.70010      -11.54370       13.12680
C         -4.60090       -8.49320        8.76940
C         -4.75250       -7.16670        8.49960
S         -5.09420       -6.22810        9.94100
C         -4.62630       -6.51380        7.23830
C         -4.74420       -5.18240        6.97330
C         -4.50250       -4.84890        5.61670
C         -4.47440       -3.57120        5.03290
C         -4.86200       -2.37470        5.78840
C         -4.06750       -1.23280        5.79690
C         -4.44870       -0.09870        6.48830
C         -5.64720       -0.06380        7.19240
S         -6.26180        1.30870        8.10170
C         -5.01860        2.61780        7.79090
C         -5.47540        3.89080        8.47840
C         -6.43360       -1.21900        7.17790
F         -7.60410       -1.21870        7.84670
C         -6.06210       -2.35580        6.49910
C         -4.07470       -3.50320        3.70700
C         -3.74840       -4.64560        2.93290
C         -3.80990       -5.92590        3.50860
C         -3.46900       -7.13170        2.74390
C         -4.33370       -8.22400        2.70720
C         -4.01810       -9.34430        1.96880
C         -2.82380       -9.43060        1.25610
S         -2.51290      -10.92750        0.36630
C         -1.73620      -10.35980       -1.19230
C         -2.60800       -9.36740       -1.93520
C         -1.94910       -8.35140        1.34060
C         -2.26450       -7.21210        2.05240
F         -0.74650       -8.38420        0.72470
C         -4.18380       -5.99150        4.84180
S         -4.23130       -7.44540        5.80500
C         -3.39440       -4.30300        1.60350
C         -3.42440       -2.95910        1.36760
S         -3.92620       -2.03830        2.77060
C         -3.00450       -2.24200        0.21040
O         -2.83760       -0.90600        0.33140
C         -2.28740       -0.44500       -0.81430
C         -2.11860       -1.49300       -1.71680
C         -2.59070       -2.65540       -1.05040
O         -2.61540       -3.93690       -1.53460
C         -3.91110       -4.43320       -1.82460
O         -1.58300       -1.32080       -2.93700
C         -1.53070       -2.44190       -3.79810
C         -1.93620        0.92850       -0.96230
O         -1.18780        1.24580       -2.03600
C         -0.95760        2.58040       -2.00820
C         -1.57170        3.14340       -0.89820
C         -2.20410        2.07240       -0.21150
O         -2.96700        2.18560        0.91810
C         -2.43100        1.59670        2.09040
O         -1.51470        4.46740       -0.64830
C         -2.16390        4.94400        0.51240
C         -0.12920        3.15730       -3.00610
C          0.48870        2.48530       -4.02180
C          1.28890        3.31770       -4.83870
C          2.09200        2.94060       -5.93000
C          2.09630        1.55840       -6.42050
C          3.28830        0.88690       -6.67810
C          3.29320       -0.41990       -7.12500
C          2.10270       -1.10540       -7.33620
S          1.97430       -2.77910       -7.87670
C          3.58710       -3.10710       -8.66750
C          3.78330       -2.29250       -9.93150
C          0.91550       -0.42360       -7.06740
F         -0.26170       -1.06330       -7.24240
C          0.89540        0.87940       -6.62640
C          2.87290        3.93580       -6.49850
C          2.86900        5.27840       -6.04420
C          2.05220        5.65680       -4.96420
C          2.05010        7.03060       -4.44770
C          3.24230        7.68370       -4.13580
C          3.23130        8.96300       -3.62250
C          2.03480        9.64480       -3.41070
S          2.11860       11.29310       -2.77640
C          0.67790       11.37680       -1.63920
C          0.97090       12.38410       -0.54530
C          0.85370        8.99110       -3.74780
C          0.85010        7.70290       -4.24150
F         -0.33880        9.61220       -3.60930
C          1.27250        4.66440       -4.39170
S          0.23190        4.86300       -2.99800
C          3.72300        6.10170       -6.81940
C          4.37500        5.43350       -7.81430
S          3.94190        3.73760       -7.86260
C          5.33500        5.96420       -8.72920
C          5.90890        7.20070       -8.69490
C          6.84150        7.42560       -9.73960
C          7.63040        8.56610       -9.96160
C          7.49900        9.75270       -9.10900
C          6.24770       10.30530       -8.84530
C          6.11030       11.40010       -8.01550
C          7.22020       11.97750       -7.40820
S          7.16210       13.36280       -6.32000
C          5.46760       13.29560       -5.63750
C          5.23310       12.04830       -4.80890
C          8.47050       11.43470       -7.70720
F          9.57130       11.97760       -7.15170
C          8.62210       10.34710       -8.53830
C          8.52790        8.50380      -11.01850
C          8.66140        7.37020      -11.85650
C          7.87710        6.22950      -11.63100
C          8.01550        5.01620      -12.44570
C          6.90250        4.40160      -13.00990
C          7.02260        3.24380      -13.75440
C          8.26510        2.65250      -13.95230
S          8.56140        1.17670      -14.86220
C          6.87840        0.60630      -15.30690
C          6.99090       -0.73280      -16.01120
C          9.37430        3.28210      -13.38240
C          9.26870        4.43890      -12.64530
F         10.59520        2.73420      -13.55420
C          6.97520        6.29280      -10.57900
S          5.92520        4.99780      -10.06540
C          9.60900        7.59740      -12.89900
C         10.16410        8.82470      -12.84540
S          9.58410        9.79360      -11.53440
H         -4.98870      -11.09770       15.49890
H         -5.29390       -8.54610       15.06990
H         -7.20460       -7.31050       14.03870
H         -7.66840       -5.28350       15.35440
H         -4.43530       -1.59020       15.16290
H         -5.25630       -1.16310       16.67520
H         -3.15300       -2.41200       17.16640
H         -3.71160       -3.76750       16.18480
H         -4.56410       -3.35030       17.67500
H         -3.81580       -5.35150       12.30050
H         -6.06130      -10.92500        8.61290
H         -5.65370      -12.94200        7.26300
H         -1.94250      -16.09930        6.52590
H         -1.58340      -15.49960        8.15540
H         -0.32390      -14.20300        6.40480
H         -1.85610      -13.75950        5.64010
H         -1.46460      -13.15770        7.25410
H         -2.75340      -11.98600       11.11920
H         -4.36700       -9.21690        8.00880
H         -4.96380       -4.45740        7.73660
H         -3.12410       -1.23370        5.27330
H         -3.79870        0.76060        6.47530
H         -4.06330        2.28010        8.19340
H         -4.94540        2.76160        6.71280
H         -4.75060        4.68410        8.30840
H         -5.57350        3.73030        9.54940
H         -6.43960        4.20850        8.08870
H         -6.72080       -3.21000        6.50390
H         -5.27220       -8.18060        3.23760
H         -4.69850      -10.18030        1.92670
H         -1.61910      -11.28230       -1.76090
H         -0.75230       -9.95220       -0.97130
H         -3.59590       -9.78630       -2.11550
H         -2.72100       -8.44730       -1.36430
H         -2.15030       -9.12320       -2.89170
H         -1.54520       -6.40870        2.09130
H         -3.09850       -5.02060        0.86190
H         -4.56640       -4.38540       -0.95050
H         -3.77330       -5.46960       -2.12680
H         -4.37150       -3.87290       -2.64540
H         -2.53430       -2.77940       -4.07140
H         -1.01320       -2.10170       -4.69300
H         -0.98420       -3.27020       -3.34220
H         -2.28070        0.52320        1.97150
H         -1.48110        2.06900        2.36650
H         -3.16940        1.77360        2.86980
H         -3.21090        4.63540        0.53790
H         -2.09530        6.02910        0.45890
H         -1.66310        4.59140        1.41890
H          0.38680        1.42300       -4.14000
H          4.23030        1.38260       -6.50210
H          4.23960       -0.90730       -7.29430
H          3.54530       -4.17260       -8.89360
H          4.37770       -2.93920       -7.93730
H          4.73380       -2.55150      -10.39390
H          3.78200       -1.22630       -9.71360
H          2.98340       -2.49970      -10.63870
H         -0.05420        1.36480       -6.46650
H          4.18190        7.16810       -4.26340
H          4.15500        9.45830       -3.36690
H         -0.19910       11.66420       -2.21740
H          0.53910       10.37740       -1.22950
H          1.85950       12.09580        0.01200
H          0.12790       12.43570        0.14050
H          1.13580       13.37180       -0.96990
H         -0.09430        7.24460       -4.48800
H          3.83000        7.15770       -6.65410
H          5.70050        7.92310       -7.92770
H          5.37130        9.88610       -9.31670
H          5.12670       11.80870       -7.84740
H          4.75230       13.39320       -6.45290
H          5.41000       14.19000       -5.01780
H          5.96180       11.99220       -4.00350
H          4.23550       12.07400       -4.37460
H          5.32370       11.15210       -5.42000
H          9.61130        9.95410       -8.71100
H          5.92640        4.84380      -12.88170
H          6.13540        2.80610      -14.18140
H          6.30180        0.51530      -14.38620
H          6.42900        1.35310      -15.96180
H          6.00090       -1.09070      -16.28570
H          7.59130       -0.63940      -16.91300
H          7.46050       -1.46660      -15.36030
H         10.15630        4.86830      -12.20780
H          9.83880        6.87100      -13.65700
H         10.89840        9.24500      -13.50460
