88

C         -5.83840        5.45140       10.05170
C         -6.26170        4.74110        8.98560
C         -5.16510        4.59060        8.08140
C         -4.05520        5.21420        8.59200
C         -4.38900        5.82430        9.90810
C         -2.95740        5.06720        7.70570
C         -3.37820        4.34120        6.62230
C         -4.83830        3.97610        6.76890
C         -2.61090        3.93020        5.50510
O         -3.19950        3.17970        4.53460
C         -2.26910        2.88120        3.59880
C         -1.04500        3.44260        3.96280
C         -1.26840        4.12160        5.18570
O         -0.43480        4.85600        5.96070
C          0.89680        5.01050        5.51690
O          0.13320        3.39440        3.26350
C          0.80070        2.14590        3.29310
C         -2.65550        2.09260        2.47850
O         -1.70260        1.66460        1.61820
C         -2.29180        0.87420        0.68020
C         -3.66310        0.81340        0.92920
C         -3.89880        1.59680        2.08320
O         -5.11010        1.78520        2.69690
C         -5.60800        3.10920        2.66200
O         -4.50800        0.08460        0.15810
C         -5.87980        0.12040        0.48930
C         -1.50530        0.23640       -0.30340
C         -0.13920        0.32670       -0.45880
C          0.24660       -0.52510       -1.50990
C         -0.86100       -1.16230       -2.04070
C         -2.08360       -0.71710       -1.32180
C         -0.46910       -2.04430       -3.06250
C          0.90570       -1.99240       -3.19930
C          1.47160       -0.98890       -2.21390
C          1.70620       -2.75740       -4.06620
C          3.08460       -2.73080       -4.17430
C          3.48770       -3.68980       -5.11810
C          2.38460       -4.34430       -5.63590
C          1.14760       -3.79790       -5.01660
C          2.79080       -5.32210       -6.56090
C          4.16840       -5.31280       -6.64910
C          4.72540       -4.24740       -5.72630
C          4.98050       -6.15050       -7.44220
C          6.35550       -6.15130       -7.51920
C          6.76040       -7.16170       -8.42190
C          5.66220       -7.81150       -8.92820
C          4.42290       -7.22720       -8.35240
C          6.08150       -8.83080       -9.83590
C          7.43010       -8.81830       -9.89610
C          7.99850       -7.75300       -9.00010
H         -6.42290        5.73310       10.90880
H         -7.25160        4.34880        8.83340
H         -3.78790        5.41450       10.72210
H         -4.25060        6.90710        9.91500
H         -1.96410        5.44800        7.84720
H         -4.97670        2.89410        6.75590
H         -5.43220        4.38700        5.95090
H          1.35250        5.72430        6.20180
H          1.44530        4.06490        5.56330
H          0.93640        5.39690        4.49630
H          0.19720        1.35690        2.84040
H          1.05680        1.85990        4.32020
H          1.71330        2.28670        2.71680
H         -4.94010        3.80570        3.17200
H         -5.75880        3.44580        1.62950
H         -6.56600        3.07700        3.17760
H         -6.36160       -0.58710       -0.18410
H         -6.04890       -0.17760        1.52630
H         -6.30230        1.11700        0.33070
H          0.50960        0.94280        0.13640
H         -2.79910       -0.21200       -1.97180
H         -2.61710       -1.53620       -0.83890
H         -1.12950       -2.66870       -3.63730
H          1.98540       -0.17570       -2.72940
H          2.18720       -1.45580       -1.53540
H          3.74070       -2.08520       -3.61820
H          0.48170       -3.34440       -5.75300
H          0.57990       -4.56140       -4.48230
H          2.13510       -5.97680       -7.10700
H          5.39510       -4.67770       -4.98000
H          5.28830       -3.49620       -6.28300
H          7.01450       -5.49380       -6.98090
H          3.77030       -6.80150       -9.11650
H          3.84080       -7.95930       -7.79010
H          5.42630       -9.49200      -10.37520
H          8.05250       -9.46380      -10.48920
H          8.58620       -7.02590       -9.56410
H          8.65340       -8.17930       -8.23720
