232

C         -6.63720        1.57740       17.16010
O         -6.46950        0.91170       16.00230
C         -5.92270        1.77290       15.11130
C         -5.73470        3.01080       15.70510
C         -6.20610        2.87120       17.04570
O         -6.20210        3.86080       17.98050
C         -6.71220        3.50480       19.24380
O         -5.19980        4.07080       15.05800
C         -5.05680        5.27260       15.78850
C         -5.61830        1.33730       13.78850
C         -5.09020        2.07870       12.77390
C         -4.88500        1.33470       11.58520
C         -4.34000        1.77980       10.37050
C         -3.84740        3.15190       10.19850
C         -2.94510        3.71110       11.10190
C         -2.44790        4.98080       10.90060
C         -2.84060        5.74820        9.80610
S         -2.15620        7.37340        9.65670
C         -1.80340        7.53020        7.86620
C         -0.90390        6.41960        7.36250
C         -3.77260        5.19270        8.93540
F         -4.24110        5.89780        7.88180
C         -4.25730        3.91260        9.10870
C         -4.26220        0.85140        9.34370
C         -4.67490       -0.49700        9.48030
C         -5.20650       -0.94680       10.70170
C         -5.59850       -2.34770       10.89800
C         -4.72510       -3.38780       10.58080
C         -5.08530       -4.69950       10.79970
C         -6.33110       -5.03090       11.33140
S         -6.69220       -6.74520       11.54370
C         -7.75520       -6.78110       13.04320
C         -7.62020       -8.13740       13.70660
C         -7.20350       -3.98440       11.61560
C         -6.84670       -2.66550       11.42200
F         -8.44810       -4.22850       12.08480
C         -5.31250       -0.01120       11.71930
S         -5.91450       -0.32400       13.32910
C         -4.47920       -1.23350        8.28460
C         -3.90350       -0.50660        7.28320
S         -3.59680        1.15080        7.76100
C         -3.53430       -0.94750        5.97610
C         -3.69600       -2.18880        5.43190
C         -3.18840       -2.30170        4.11320
C         -3.16020       -3.43920        3.28700
C         -3.79160       -4.69880        3.69660
C         -3.10520       -5.90960        3.61800
C         -3.71400       -7.08730        3.99210
C         -5.02510       -7.11280        4.46710
S         -5.65900       -8.68640        4.96110
C         -7.43990       -8.63520        4.54040
C         -7.67120       -8.36540        3.06730
C         -5.68990       -5.89390        4.56160
F         -6.95190       -5.82150        5.04290
C         -5.09870       -4.70890        4.17260
C         -2.51070       -3.30840        2.06890
C         -1.90370       -2.10160        1.63760
C         -1.95280       -0.95900        2.45270
C         -1.32920        0.30590        2.04430
C         -2.05170        1.49530        2.05800
C         -1.46910        2.68720        1.67490
C         -0.14100        2.73110        1.26720
S          0.70940        4.19880        0.78410
C         -0.61910        5.26770        0.12860
C         -1.28500        4.67130       -1.09580
C          0.57770        1.53570        1.28020
C          0.00710        0.33910        1.65230
F          1.87630        1.54480        0.91690
C         -2.60450       -1.08890        3.66840
S         -2.74280        0.16070        4.87450
C         -1.33590       -2.22630        0.34640
C         -1.49210       -3.46970       -0.19480
S         -2.36990       -4.55660        0.85520
C         -1.02960       -3.90120       -1.47200
O         -0.36070       -3.02820       -2.25120
C         -0.06930       -3.64740       -3.42020
C         -0.55900       -4.94940       -3.40270
C         -1.17150       -5.11490       -2.13290
O         -1.79750       -6.22700       -1.63170
C         -0.97210       -7.04820       -0.82230
O         -0.43900       -5.78850       -4.45440
C         -1.10800       -7.03250       -4.37690
C          0.68230       -2.96020       -4.41190
C          1.06280       -3.42670       -5.63630
C          1.84790       -2.50360       -6.36970
C          2.42170       -2.68260       -7.64110
C          2.28800       -3.95370       -8.36200
C          1.87020       -3.98880       -9.69110
C          1.71210       -5.19140      -10.34570
C          1.98000       -6.40360       -9.71270
S          1.75620       -7.88050      -10.66000
C          1.05190       -9.07450       -9.46280
C         -0.21300       -8.55270       -8.81070
C          2.44480       -6.35050       -8.40210
F          2.77880       -7.48040       -7.73760
C          2.58290       -5.15590       -7.72610
C          3.12700       -1.60900       -8.16280
C          3.30450       -0.39490       -7.45560
C          2.76330       -0.22520       -6.16880
C          3.01040        1.01620       -5.42350
C          4.30160        1.53760       -5.32830
C          4.53560        2.73630       -4.68730
C          3.49280        3.45170       -4.10880
S          3.84210        5.01850       -3.35120
C          3.20170        4.73780       -1.66110
C          3.94140        3.61790       -0.96110
C          2.21360        2.91270       -4.19040
C          1.96470        1.71360       -4.82700
F          1.16100        3.57250       -3.65800
C          2.02520       -1.28370       -5.66520
S          1.25360       -1.33610       -4.09980
C          4.06530        0.53850       -8.19670
C          4.51200        0.06090       -9.39430
S          3.96150       -1.57310       -9.69710
C          5.37670        0.76900      -10.28430
C          6.00950        1.93880       -9.98270
C          6.84640        2.42000      -11.01670
C          7.61350        3.59600      -11.00860
C          7.68290        4.39740       -9.78020
C          7.38250        5.75500       -9.75660
C          7.35190        6.45450       -8.56430
C          7.62080        5.82240       -7.35500
S          7.58080        6.59910       -5.77260
C          6.35690        7.93600       -5.98960
C          4.97260        7.39530       -6.28820
C          7.97510        4.47360       -7.40170
F          8.26990        3.82740       -6.25520
C          8.00710        3.76470       -8.58000
C          8.28000        3.90460      -12.18300
C          8.24700        3.07120      -13.32920
C          7.50840        1.87800      -13.32030
C          7.45810        0.98510      -14.48490
C          7.10780        1.45990      -15.74740
C          7.02570        0.59960      -16.82140
C          7.30680       -0.75880      -16.68660
S          7.20370       -1.75760      -18.14260
C          6.46690       -3.32740      -17.55380
C          5.13460       -3.10880      -16.86580
C          7.68970       -1.21130      -15.42770
C          7.74560       -0.36740      -14.33740
F          8.02930       -2.50350      -15.22950
C          6.81910        1.57930      -12.15370
S          5.78450        0.19570      -11.88780
C          9.07460        3.58710      -14.37140
C          9.68040        4.74440      -14.03860
S          9.30260        5.29390      -12.44080
H         -7.06490        1.02950       17.97440
H         -6.63860        4.40030       19.85790
H         -6.12470        2.69930       19.69510
H         -7.75810        3.19070       19.17410
H         -4.61620        5.98460       15.09260
H         -4.39680        5.13870       16.64850
H         -6.02330        5.64440       16.13540
H         -4.86900        3.12340       12.87960
H         -2.60710        3.13040       11.94610
H         -1.73370        5.40380       11.58990
H         -1.30990        8.49960        7.79490
H         -2.74490        7.57070        7.32280
H         -0.64930        6.59950        6.31990
H          0.01470        6.37800        7.94420
H         -1.40070        5.45350        7.43160
H         -4.97800        3.53220        8.40180
H         -3.74340       -3.16060       10.19380
H         -4.40110       -5.50090       10.56700
H         -8.78390       -6.59030       12.74130
H         -7.40950       -5.98490       13.70080
H         -8.24720       -8.17530       14.59490
H         -6.58810       -8.31960       13.99760
H         -7.93080       -8.92730       13.02650
H         -7.56520       -1.89610       11.65650
H         -4.76460       -2.26350        8.17530
H         -4.13970       -3.00910        5.96500
H         -2.08350       -5.92370        3.27250
H         -3.17940       -8.02220        3.92780
H         -7.93390       -7.90210        5.17390
H         -7.78510       -9.63190        4.81590
H         -7.14300       -9.09540        2.45730
H         -8.73500       -8.42870        2.84740
H         -7.32390       -7.37110        2.79400
H         -5.67430       -3.79820        4.23730
H         -3.08810        1.48700        2.35880
H         -2.05710        3.59050        1.70300
H         -0.09700        6.19140       -0.12130
H         -1.32950        5.47630        0.92790
H         -1.77190        3.72860       -0.85330
H         -2.03510        5.36060       -1.47850
H         -0.55290        4.48780       -1.87820
H          0.61100       -0.55480        1.65410
H         -0.84090       -1.42940       -0.17710
H         -0.55350       -6.49070        0.01990
H         -0.15080       -7.48210       -1.40340
H         -1.61730       -7.84020       -0.44920
H         -0.59640       -7.71710       -3.69470
H         -1.07880       -7.44420       -5.38470
H         -2.14380       -6.90990       -4.05510
H          0.77430       -4.39650       -5.99320
H          1.63610       -3.06880      -10.20360
H          1.36880       -5.21530      -11.36810
H          0.84310       -9.94860      -10.07960
H          1.81230       -9.33230       -8.72890
H         -0.64750       -9.32870       -8.18310
H         -0.94140       -8.26480       -9.56600
H          0.00020       -7.68510       -8.18890
H          2.95370       -5.17280       -6.71310
H          5.13160        0.98450       -5.74060
H          5.53530        3.13800       -4.62410
H          2.13490        4.53810       -1.72510
H          3.35540        5.69130       -1.15710
H          3.80310        2.67470       -1.48700
H          5.00610        3.83490       -0.90970
H          3.55300        3.50350        0.04790
H          0.94970        1.35260       -4.88230
H          4.25660        1.53800       -7.85500
H          5.87940        2.45460       -9.05030
H          7.14520        6.26540      -10.67750
H          7.10800        7.50480       -8.58010
H          6.37400        8.45010       -5.02890
H          6.71300        8.62110       -6.75840
H          4.26180        8.21670       -6.35220
H          4.96210        6.85290       -7.23190
H          4.65430        6.72040       -5.49670
H          8.28650        2.72270       -8.56060
H          6.86490        2.50370      -15.87650
H          6.73620        0.96570      -17.79410
H          7.18080       -3.83470      -16.90870
H          6.34630       -3.90290      -18.47170
H          5.25760       -2.52910      -15.95280
H          4.69740       -4.07010      -16.60360
H          4.44780       -2.57850      -17.52230
H          8.04600       -0.77310      -13.38390
H          9.21160        3.09210      -15.31560
H         10.34700        5.33450      -14.63670
