
  xtb     03042214143D
 energy: -137.891172703234 gnorm: 0.000140539021 xtb: 6.4.1 (unknown)
 88 97  0     0  0            999 V2000
   -5.8384    5.4514   10.0517 C   0  0  0  0  0  0  0  0  0  0  0  0
   -6.2617    4.7411    8.9856 C   0  0  0  0  0  0  0  0  0  0  0  0
   -5.1651    4.5906    8.0814 C   0  0  0  0  0  0  0  0  0  0  0  0
   -4.0552    5.2142    8.5920 C   0  0  0  0  0  0  0  0  0  0  0  0
   -4.3890    5.8243    9.9081 C   0  0  0  0  0  0  0  0  0  0  0  0
   -2.9574    5.0672    7.7057 C   0  0  0  0  0  0  0  0  0  0  0  0
   -3.3782    4.3412    6.6223 C   0  0  0  0  0  0  0  0  0  0  0  0
   -4.8383    3.9761    6.7689 C   0  0  0  0  0  0  0  0  0  0  0  0
   -2.6109    3.9302    5.5051 C   0  0  0  0  0  0  0  0  0  0  0  0
   -3.1995    3.1797    4.5346 O   0  0  0  0  0  0  0  0  0  0  0  0
   -2.2691    2.8812    3.5988 C   0  0  0  0  0  0  0  0  0  0  0  0
   -1.0450    3.4426    3.9628 C   0  0  0  0  0  0  0  0  0  0  0  0
   -1.2684    4.1216    5.1857 C   0  0  0  0  0  0  0  0  0  0  0  0
   -0.4348    4.8560    5.9607 O   0  0  0  0  0  0  0  0  0  0  0  0
    0.8968    5.0105    5.5169 C   0  0  0  0  0  0  0  0  0  0  0  0
    0.1332    3.3944    3.2635 O   0  0  0  0  0  0  0  0  0  0  0  0
    0.8007    2.1459    3.2931 C   0  0  0  0  0  0  0  0  0  0  0  0
   -2.6555    2.0926    2.4785 C   0  0  0  0  0  0  0  0  0  0  0  0
   -1.7026    1.6646    1.6182 O   0  0  0  0  0  0  0  0  0  0  0  0
   -2.2918    0.8742    0.6802 C   0  0  0  0  0  0  0  0  0  0  0  0
   -3.6631    0.8134    0.9292 C   0  0  0  0  0  0  0  0  0  0  0  0
   -3.8988    1.5968    2.0832 C   0  0  0  0  0  0  0  0  0  0  0  0
   -5.1101    1.7852    2.6969 O   0  0  0  0  0  0  0  0  0  0  0  0
   -5.6080    3.1092    2.6620 C   0  0  0  0  0  0  0  0  0  0  0  0
   -4.5080    0.0846    0.1581 O   0  0  0  0  0  0  0  0  0  0  0  0
   -5.8798    0.1204    0.4893 C   0  0  0  0  0  0  0  0  0  0  0  0
   -1.5053    0.2364   -0.3034 C   0  0  0  0  0  0  0  0  0  0  0  0
   -0.1392    0.3267   -0.4588 C   0  0  0  0  0  0  0  0  0  0  0  0
    0.2466   -0.5251   -1.5099 C   0  0  0  0  0  0  0  0  0  0  0  0
   -0.8610   -1.1623   -2.0407 C   0  0  0  0  0  0  0  0  0  0  0  0
   -2.0836   -0.7171   -1.3218 C   0  0  0  0  0  0  0  0  0  0  0  0
   -0.4691   -2.0443   -3.0625 C   0  0  0  0  0  0  0  0  0  0  0  0
    0.9057   -1.9924   -3.1993 C   0  0  0  0  0  0  0  0  0  0  0  0
    1.4716   -0.9889   -2.2139 C   0  0  0  0  0  0  0  0  0  0  0  0
    1.7062   -2.7574   -4.0662 C   0  0  0  0  0  0  0  0  0  0  0  0
    3.0846   -2.7308   -4.1743 C   0  0  0  0  0  0  0  0  0  0  0  0
    3.4877   -3.6898   -5.1181 C   0  0  0  0  0  0  0  0  0  0  0  0
    2.3846   -4.3443   -5.6359 C   0  0  0  0  0  0  0  0  0  0  0  0
    1.1476   -3.7979   -5.0166 C   0  0  0  0  0  0  0  0  0  0  0  0
    2.7908   -5.3221   -6.5609 C   0  0  0  0  0  0  0  0  0  0  0  0
    4.1684   -5.3128   -6.6491 C   0  0  0  0  0  0  0  0  0  0  0  0
    4.7254   -4.2474   -5.7263 C   0  0  0  0  0  0  0  0  0  0  0  0
    4.9805   -6.1505   -7.4422 C   0  0  0  0  0  0  0  0  0  0  0  0
    6.3555   -6.1513   -7.5192 C   0  0  0  0  0  0  0  0  0  0  0  0
    6.7604   -7.1617   -8.4219 C   0  0  0  0  0  0  0  0  0  0  0  0
    5.6622   -7.8115   -8.9282 C   0  0  0  0  0  0  0  0  0  0  0  0
    4.4229   -7.2272   -8.3524 C   0  0  0  0  0  0  0  0  0  0  0  0
    6.0815   -8.8308   -9.8359 C   0  0  0  0  0  0  0  0  0  0  0  0
    7.4301   -8.8183   -9.8961 C   0  0  0  0  0  0  0  0  0  0  0  0
    7.9985   -7.7530   -9.0001 C   0  0  0  0  0  0  0  0  0  0  0  0
   -6.4229    5.7331   10.9088 H   0  0  0  0  0  0  0  0  0  0  0  0
   -7.2516    4.3488    8.8334 H   0  0  0  0  0  0  0  0  0  0  0  0
   -3.7879    5.4145   10.7221 H   0  0  0  0  0  0  0  0  0  0  0  0
   -4.2506    6.9071    9.9150 H   0  0  0  0  0  0  0  0  0  0  0  0
   -1.9641    5.4480    7.8472 H   0  0  0  0  0  0  0  0  0  0  0  0
   -4.9767    2.8941    6.7559 H   0  0  0  0  0  0  0  0  0  0  0  0
   -5.4322    4.3870    5.9509 H   0  0  0  0  0  0  0  0  0  0  0  0
    1.3525    5.7243    6.2018 H   0  0  0  0  0  0  0  0  0  0  0  0
    1.4453    4.0649    5.5633 H   0  0  0  0  0  0  0  0  0  0  0  0
    0.9364    5.3969    4.4963 H   0  0  0  0  0  0  0  0  0  0  0  0
    0.1972    1.3569    2.8404 H   0  0  0  0  0  0  0  0  0  0  0  0
    1.0568    1.8599    4.3202 H   0  0  0  0  0  0  0  0  0  0  0  0
    1.7133    2.2867    2.7168 H   0  0  0  0  0  0  0  0  0  0  0  0
   -4.9401    3.8057    3.1720 H   0  0  0  0  0  0  0  0  0  0  0  0
   -5.7588    3.4458    1.6295 H   0  0  0  0  0  0  0  0  0  0  0  0
   -6.5660    3.0770    3.1776 H   0  0  0  0  0  0  0  0  0  0  0  0
   -6.3616   -0.5871   -0.1841 H   0  0  0  0  0  0  0  0  0  0  0  0
   -6.0489   -0.1776    1.5263 H   0  0  0  0  0  0  0  0  0  0  0  0
   -6.3023    1.1170    0.3307 H   0  0  0  0  0  0  0  0  0  0  0  0
    0.5096    0.9428    0.1364 H   0  0  0  0  0  0  0  0  0  0  0  0
   -2.7991   -0.2120   -1.9718 H   0  0  0  0  0  0  0  0  0  0  0  0
   -2.6171   -1.5362   -0.8389 H   0  0  0  0  0  0  0  0  0  0  0  0
   -1.1295   -2.6687   -3.6373 H   0  0  0  0  0  0  0  0  0  0  0  0
    1.9854   -0.1757   -2.7294 H   0  0  0  0  0  0  0  0  0  0  0  0
    2.1872   -1.4558   -1.5354 H   0  0  0  0  0  0  0  0  0  0  0  0
    3.7407   -2.0852   -3.6182 H   0  0  0  0  0  0  0  0  0  0  0  0
    0.4817   -3.3444   -5.7530 H   0  0  0  0  0  0  0  0  0  0  0  0
    0.5799   -4.5614   -4.4823 H   0  0  0  0  0  0  0  0  0  0  0  0
    2.1351   -5.9768   -7.1070 H   0  0  0  0  0  0  0  0  0  0  0  0
    5.3951   -4.6777   -4.9800 H   0  0  0  0  0  0  0  0  0  0  0  0
    5.2883   -3.4962   -6.2830 H   0  0  0  0  0  0  0  0  0  0  0  0
    7.0145   -5.4938   -6.9809 H   0  0  0  0  0  0  0  0  0  0  0  0
    3.7703   -6.8015   -9.1165 H   0  0  0  0  0  0  0  0  0  0  0  0
    3.8408   -7.9593   -7.7901 H   0  0  0  0  0  0  0  0  0  0  0  0
    5.4263   -9.4920  -10.3752 H   0  0  0  0  0  0  0  0  0  0  0  0
    8.0525   -9.4638  -10.4892 H   0  0  0  0  0  0  0  0  0  0  0  0
    8.5862   -7.0259   -9.5641 H   0  0  0  0  0  0  0  0  0  0  0  0
    8.6534   -8.1793   -8.2372 H   0  0  0  0  0  0  0  0  0  0  0  0
  1  2  2  0  0  0  0
  2  3  1  0  0  0  0
  3  4  2  0  0  0  0
  4  5  1  0  0  0  0
  4  6  1  0  0  0  0
  6  7  2  0  0  0  0
  7  8  1  0  0  0  0
  7  9  1  0  0  0  0
  9 10  1  0  0  0  0
 10 11  1  0  0  0  0
 11 12  2  0  0  0  0
 12 13  1  0  0  0  0
 13 14  1  0  0  0  0
 14 15  1  0  0  0  0
 12 16  1  0  0  0  0
 16 17  1  0  0  0  0
 11 18  1  0  0  0  0
 18 19  1  0  0  0  0
 19 20  1  0  0  0  0
 20 21  2  0  0  0  0
 21 22  1  0  0  0  0
 22 23  1  0  0  0  0
 23 24  1  0  0  0  0
 21 25  1  0  0  0  0
 25 26  1  0  0  0  0
 20 27  1  0  0  0  0
 27 28  2  0  0  0  0
 28 29  1  0  0  0  0
 29 30  2  0  0  0  0
 30 31  1  0  0  0  0
 30 32  1  0  0  0  0
 32 33  2  0  0  0  0
 33 34  1  0  0  0  0
 33 35  1  0  0  0  0
 35 36  2  0  0  0  0
 36 37  1  0  0  0  0
 37 38  2  0  0  0  0
 38 39  1  0  0  0  0
 38 40  1  0  0  0  0
 40 41  2  0  0  0  0
 41 42  1  0  0  0  0
 41 43  1  0  0  0  0
 43 44  2  0  0  0  0
 44 45  1  0  0  0  0
 45 46  2  0  0  0  0
 46 47  1  0  0  0  0
 46 48  1  0  0  0  0
 48 49  2  0  0  0  0
 49 50  1  0  0  0  0
  5  1  1  0  0  0  0
 13  9  2  0  0  0  0
 22 18  2  0  0  0  0
 31 27  1  0  0  0  0
 39 35  1  0  0  0  0
 47 43  1  0  0  0  0
  8  3  1  0  0  0  0
 34 29  1  0  0  0  0
 42 37  1  0  0  0  0
 50 45  1  0  0  0  0
  1 51  1  0  0  0  0
  2 52  1  0  0  0  0
  5 53  1  0  0  0  0
  5 54  1  0  0  0  0
  6 55  1  0  0  0  0
  8 56  1  0  0  0  0
  8 57  1  0  0  0  0
 15 58  1  0  0  0  0
 15 59  1  0  0  0  0
 15 60  1  0  0  0  0
 17 61  1  0  0  0  0
 17 62  1  0  0  0  0
 17 63  1  0  0  0  0
 24 64  1  0  0  0  0
 24 65  1  0  0  0  0
 24 66  1  0  0  0  0
 26 67  1  0  0  0  0
 26 68  1  0  0  0  0
 26 69  1  0  0  0  0
 28 70  1  0  0  0  0
 31 71  1  0  0  0  0
 31 72  1  0  0  0  0
 32 73  1  0  0  0  0
 34 74  1  0  0  0  0
 34 75  1  0  0  0  0
 36 76  1  0  0  0  0
 39 77  1  0  0  0  0
 39 78  1  0  0  0  0
 40 79  1  0  0  0  0
 42 80  1  0  0  0  0
 42 81  1  0  0  0  0
 44 82  1  0  0  0  0
 47 83  1  0  0  0  0
 47 84  1  0  0  0  0
 48 85  1  0  0  0  0
 49 86  1  0  0  0  0
 50 87  1  0  0  0  0
 50 88  1  0  0  0  0
M  END
