
  xtb     03042212553D
 energy: -406.617632195298 gnorm: 0.000527919361 xtb: 6.4.1 (unknown)
232253  0     0  0            999 V2000
   -9.2834    1.9891   15.1207 C   0  0  0  0  0  0  0  0  0  0  0  0
   -9.0411    1.2387   14.0290 O   0  0  0  0  0  0  0  0  0  0  0  0
   -9.7318    0.0795   14.1671 C   0  0  0  0  0  0  0  0  0  0  0  0
  -10.4446    0.0923   15.3540 C   0  0  0  0  0  0  0  0  0  0  0  0
  -10.1371    1.3454   15.9725 C   0  0  0  0  0  0  0  0  0  0  0  0
  -10.6295    1.7641   17.1719 O   0  0  0  0  0  0  0  0  0  0  0  0
  -10.1503    3.0091   17.6224 C   0  0  0  0  0  0  0  0  0  0  0  0
  -11.2844   -0.8876   15.7467 O   0  0  0  0  0  0  0  0  0  0  0  0
  -11.6641   -0.9012   17.1071 C   0  0  0  0  0  0  0  0  0  0  0  0
   -9.6161   -0.8990   13.1294 C   0  0  0  0  0  0  0  0  0  0  0  0
   -9.0343   -0.5254   11.9663 O   0  0  0  0  0  0  0  0  0  0  0  0
   -8.9972   -1.5978   11.1485 C   0  0  0  0  0  0  0  0  0  0  0  0
   -9.5814   -2.6888   11.7808 C   0  0  0  0  0  0  0  0  0  0  0  0
   -9.9726   -2.2413   13.0713 C   0  0  0  0  0  0  0  0  0  0  0  0
  -10.5119   -2.9115   14.1078 O   0  0  0  0  0  0  0  0  0  0  0  0
  -10.8526   -4.2662   13.9000 C   0  0  0  0  0  0  0  0  0  0  0  0
   -9.7342   -3.9446   11.2494 O   0  0  0  0  0  0  0  0  0  0  0  0
  -10.7553   -4.0450   10.2721 C   0  0  0  0  0  0  0  0  0  0  0  0
   -8.3468   -1.4775    9.8871 C   0  0  0  0  0  0  0  0  0  0  0  0
   -7.9918   -2.4679    9.0166 C   0  0  0  0  0  0  0  0  0  0  0  0
   -7.2920   -1.9926    7.8798 C   0  0  0  0  0  0  0  0  0  0  0  0
   -6.7581   -2.7384    6.8149 C   0  0  0  0  0  0  0  0  0  0  0  0
   -6.8581   -4.2022    6.7681 C   0  0  0  0  0  0  0  0  0  0  0  0
   -7.3244   -4.8481    5.6274 C   0  0  0  0  0  0  0  0  0  0  0  0
   -7.4111   -6.2258    5.5665 C   0  0  0  0  0  0  0  0  0  0  0  0
   -7.0245   -7.0098    6.6475 C   0  0  0  0  0  0  0  0  0  0  0  0
   -7.0788   -8.7668    6.7053 S   0  0  0  0  0  0  0  0  0  0  0  0
   -7.5450   -9.2339    4.9963 C   0  0  0  0  0  0  0  0  0  0  0  0
   -7.5008  -10.7458    4.8775 C   0  0  0  0  0  0  0  0  0  0  0  0
   -6.5584   -6.3484    7.7863 C   0  0  0  0  0  0  0  0  0  0  0  0
   -6.1721   -7.0796    8.8519 F   0  0  0  0  0  0  0  0  0  0  0  0
   -6.4715   -4.9775    7.8608 C   0  0  0  0  0  0  0  0  0  0  0  0
   -6.1114   -2.0243    5.8172 C   0  0  0  0  0  0  0  0  0  0  0  0
   -5.9538   -0.6164    5.8462 C   0  0  0  0  0  0  0  0  0  0  0  0
   -6.4834    0.1282    6.9135 C   0  0  0  0  0  0  0  0  0  0  0  0
   -6.3138    1.5839    6.9969 C   0  0  0  0  0  0  0  0  0  0  0  0
   -7.4077    2.4173    7.2105 C   0  0  0  0  0  0  0  0  0  0  0  0
   -7.2549    3.7863    7.3042 C   0  0  0  0  0  0  0  0  0  0  0  0
   -5.9977    4.3709    7.2057 C   0  0  0  0  0  0  0  0  0  0  0  0
   -5.6863    6.1049    7.3073 S   0  0  0  0  0  0  0  0  0  0  0  0
   -7.1155    6.7472    8.2440 C   0  0  0  0  0  0  0  0  0  0  0  0
   -7.1547    6.2202    9.6651 C   0  0  0  0  0  0  0  0  0  0  0  0
   -4.9104    3.5253    6.9854 C   0  0  0  0  0  0  0  0  0  0  0  0
   -5.0506    2.1596    6.8785 C   0  0  0  0  0  0  0  0  0  0  0  0
   -3.6737    4.0545    6.8799 F   0  0  0  0  0  0  0  0  0  0  0  0
   -7.1520   -0.5810    7.8983 C   0  0  0  0  0  0  0  0  0  0  0  0
   -7.8540    0.1106    9.3395 S   0  0  0  0  0  0  0  0  0  0  0  0
   -5.2346   -0.1402    4.7225 C   0  0  0  0  0  0  0  0  0  0  0  0
   -4.8169   -1.1300    3.8806 C   0  0  0  0  0  0  0  0  0  0  0  0
   -5.3288   -2.7162    4.4204 S   0  0  0  0  0  0  0  0  0  0  0  0
   -4.0183   -0.9866    2.7057 C   0  0  0  0  0  0  0  0  0  0  0  0
   -3.4418    0.1562    2.2324 C   0  0  0  0  0  0  0  0  0  0  0  0
   -2.6479   -0.0432    1.0760 C   0  0  0  0  0  0  0  0  0  0  0  0
   -1.9090    0.9175    0.3643 C   0  0  0  0  0  0  0  0  0  0  0  0
   -1.9711    2.3393    0.7224 C   0  0  0  0  0  0  0  0  0  0  0  0
   -0.8138    3.0933    0.9081 C   0  0  0  0  0  0  0  0  0  0  0  0
   -0.8922    4.4203    1.2724 C   0  0  0  0  0  0  0  0  0  0  0  0
   -2.1200    5.0549    1.4512 C   0  0  0  0  0  0  0  0  0  0  0  0
   -2.0958    6.7666    1.8896 S   0  0  0  0  0  0  0  0  0  0  0  0
   -3.4528    6.9324    3.1096 C   0  0  0  0  0  0  0  0  0  0  0  0
   -3.2879    5.9847    4.2784 C   0  0  0  0  0  0  0  0  0  0  0  0
   -3.2670    4.3004    1.2221 C   0  0  0  0  0  0  0  0  0  0  0  0
   -4.4956    4.8554    1.3234 F   0  0  0  0  0  0  0  0  0  0  0  0
   -3.2043    2.9651    0.8808 C   0  0  0  0  0  0  0  0  0  0  0  0
   -1.1269    0.4493   -0.6800 C   0  0  0  0  0  0  0  0  0  0  0  0
   -1.0941   -0.9129   -1.0720 C   0  0  0  0  0  0  0  0  0  0  0  0
   -1.8706   -1.8666   -0.3901 C   0  0  0  0  0  0  0  0  0  0  0  0
   -1.8848   -3.2749   -0.8029 C   0  0  0  0  0  0  0  0  0  0  0  0
   -1.7053   -4.3021    0.1223 C   0  0  0  0  0  0  0  0  0  0  0  0
   -1.7062   -5.6197   -0.2813 C   0  0  0  0  0  0  0  0  0  0  0  0
   -1.8953   -5.9721   -1.6165 C   0  0  0  0  0  0  0  0  0  0  0  0
   -1.9207   -7.6977   -2.0016 S   0  0  0  0  0  0  0  0  0  0  0  0
   -1.0365   -7.8142   -3.6018 C   0  0  0  0  0  0  0  0  0  0  0  0
    0.3557   -7.2218   -3.5296 C   0  0  0  0  0  0  0  0  0  0  0  0
   -2.1036   -4.9382   -2.5244 C   0  0  0  0  0  0  0  0  0  0  0  0
   -2.0874   -3.6137   -2.1379 C   0  0  0  0  0  0  0  0  0  0  0  0
   -2.3327   -5.1982   -3.8326 F   0  0  0  0  0  0  0  0  0  0  0  0
   -2.6109   -1.4065    0.6885 C   0  0  0  0  0  0  0  0  0  0  0  0
   -3.6163   -2.3821    1.7275 S   0  0  0  0  0  0  0  0  0  0  0  0
   -0.1850   -1.1318   -2.1363 C   0  0  0  0  0  0  0  0  0  0  0  0
    0.4357    0.0038   -2.5705 C   0  0  0  0  0  0  0  0  0  0  0  0
   -0.0834    1.4210   -1.6838 S   0  0  0  0  0  0  0  0  0  0  0  0
    1.4426    0.1032   -3.5787 C   0  0  0  0  0  0  0  0  0  0  0  0
    1.9089   -0.8997   -4.3786 C   0  0  0  0  0  0  0  0  0  0  0  0
    2.9785   -0.5075   -5.2207 C   0  0  0  0  0  0  0  0  0  0  0  0
    3.6783   -1.3000   -6.1482 C   0  0  0  0  0  0  0  0  0  0  0  0
    3.3523   -2.7188   -6.3374 C   0  0  0  0  0  0  0  0  0  0  0  0
    3.2819   -3.5932   -5.2540 C   0  0  0  0  0  0  0  0  0  0  0  0
    2.9335   -4.9142   -5.4392 C   0  0  0  0  0  0  0  0  0  0  0  0
    2.6480   -5.4140   -6.7073 C   0  0  0  0  0  0  0  0  0  0  0  0
    2.2066   -7.1236   -6.8424 S   0  0  0  0  0  0  0  0  0  0  0  0
    0.7950   -7.1044   -8.0104 C   0  0  0  0  0  0  0  0  0  0  0  0
   -0.3188   -6.1865   -7.5490 C   0  0  0  0  0  0  0  0  0  0  0  0
    2.7732   -4.5437   -7.7854 C   0  0  0  0  0  0  0  0  0  0  0  0
    2.5578   -4.9748   -9.0462 F   0  0  0  0  0  0  0  0  0  0  0  0
    3.1084   -3.2160   -7.6131 C   0  0  0  0  0  0  0  0  0  0  0  0
    4.6931   -0.6776   -6.8581 C   0  0  0  0  0  0  0  0  0  0  0  0
    5.0140    0.6899   -6.6833 C   0  0  0  0  0  0  0  0  0  0  0  0
    4.2860    1.4980   -5.7928 C   0  0  0  0  0  0  0  0  0  0  0  0
    4.6105    2.9261   -5.6910 C   0  0  0  0  0  0  0  0  0  0  0  0
    4.8792    3.5429   -4.4738 C   0  0  0  0  0  0  0  0  0  0  0  0
    5.2918    4.8613   -4.4189 C   0  0  0  0  0  0  0  0  0  0  0  0
    5.4495    5.6110   -5.5795 C   0  0  0  0  0  0  0  0  0  0  0  0
    6.0041    7.2806   -5.6507 S   0  0  0  0  0  0  0  0  0  0  0  0
    6.8985    7.5187   -4.0788 C   0  0  0  0  0  0  0  0  0  0  0  0
    8.1522    6.6709   -3.9980 C   0  0  0  0  0  0  0  0  0  0  0  0
    5.1200    4.9956   -6.7881 C   0  0  0  0  0  0  0  0  0  0  0  0
    4.7118    3.6845   -6.8581 C   0  0  0  0  0  0  0  0  0  0  0  0
    5.2255    5.7003   -7.9352 F   0  0  0  0  0  0  0  0  0  0  0  0
    3.2987    0.8656   -5.0569 C   0  0  0  0  0  0  0  0  0  0  0  0
    2.2812    1.6154   -3.8569 S   0  0  0  0  0  0  0  0  0  0  0  0
    6.1527    1.0634   -7.4316 C   0  0  0  0  0  0  0  0  0  0  0  0
    6.6892    0.0483   -8.1693 C   0  0  0  0  0  0  0  0  0  0  0  0
    5.7884   -1.4420   -7.9856 S   0  0  0  0  0  0  0  0  0  0  0  0
    7.8651    0.1666   -8.9721 C   0  0  0  0  0  0  0  0  0  0  0  0
    8.5900    1.3132   -9.1149 C   0  0  0  0  0  0  0  0  0  0  0  0
    9.7387    1.1675   -9.9261 C   0  0  0  0  0  0  0  0  0  0  0  0
   10.6890    2.1550  -10.2292 C   0  0  0  0  0  0  0  0  0  0  0  0
   10.5707    3.4808   -9.6077 C   0  0  0  0  0  0  0  0  0  0  0  0
   10.5232    4.6493  -10.3601 C   0  0  0  0  0  0  0  0  0  0  0  0
   10.2976    5.8732   -9.7582 C   0  0  0  0  0  0  0  0  0  0  0  0
   10.1134    5.9717   -8.3833 C   0  0  0  0  0  0  0  0  0  0  0  0
    9.7837    7.4680   -7.5122 S   0  0  0  0  0  0  0  0  0  0  0  0
    8.9752    8.5244   -8.7615 C   0  0  0  0  0  0  0  0  0  0  0  0
    7.6510    7.9516   -9.2249 C   0  0  0  0  0  0  0  0  0  0  0  0
   10.2211    4.7986   -7.6361 C   0  0  0  0  0  0  0  0  0  0  0  0
   10.0825    4.8555   -6.2944 F   0  0  0  0  0  0  0  0  0  0  0  0
   10.4405    3.5735   -8.2220 C   0  0  0  0  0  0  0  0  0  0  0  0
   11.6985    1.7895  -11.1039 C   0  0  0  0  0  0  0  0  0  0  0  0
   11.8236    0.4786  -11.6285 C   0  0  0  0  0  0  0  0  0  0  0  0
   10.8986   -0.5194  -11.2835 C   0  0  0  0  0  0  0  0  0  0  0  0
   11.0373   -1.9014  -11.7610 C   0  0  0  0  0  0  0  0  0  0  0  0
    9.9732   -2.5602  -12.3735 C   0  0  0  0  0  0  0  0  0  0  0  0
   10.1050   -3.8670  -12.7920 C   0  0  0  0  0  0  0  0  0  0  0  0
   11.2969   -4.5672  -12.6194 C   0  0  0  0  0  0  0  0  0  0  0  0
   11.3658   -6.2254  -13.2337 S   0  0  0  0  0  0  0  0  0  0  0  0
   12.2600   -7.1388  -11.9223 C   0  0  0  0  0  0  0  0  0  0  0  0
   11.5660   -7.0262  -10.5800 C   0  0  0  0  0  0  0  0  0  0  0  0
   12.3576   -3.8896  -12.0261 C   0  0  0  0  0  0  0  0  0  0  0  0
   12.2365   -2.5855  -11.5909 C   0  0  0  0  0  0  0  0  0  0  0  0
   13.5556   -4.4920  -11.8539 F   0  0  0  0  0  0  0  0  0  0  0  0
    9.8541   -0.1409  -10.4518 C   0  0  0  0  0  0  0  0  0  0  0  0
    8.5642   -1.1667   -9.8681 S   0  0  0  0  0  0  0  0  0  0  0  0
   12.9468    0.3751  -12.5033 C   0  0  0  0  0  0  0  0  0  0  0  0
   13.6383    1.5271  -12.6119 C   0  0  0  0  0  0  0  0  0  0  0  0
   12.9836    2.8237  -11.6697 S   0  0  0  0  0  0  0  0  0  0  0  0
   -8.8000    2.9433   15.1669 H   0  0  0  0  0  0  0  0  0  0  0  0
  -10.4345    3.8141   16.9375 H   0  0  0  0  0  0  0  0  0  0  0  0
  -10.6141    3.1739   18.5932 H   0  0  0  0  0  0  0  0  0  0  0  0
   -9.0615    2.9985   17.7310 H   0  0  0  0  0  0  0  0  0  0  0  0
  -12.2766   -1.7926   17.2289 H   0  0  0  0  0  0  0  0  0  0  0  0
  -12.2434   -0.0138   17.3718 H   0  0  0  0  0  0  0  0  0  0  0  0
  -10.7909   -0.9644   17.7620 H   0  0  0  0  0  0  0  0  0  0  0  0
  -10.0003   -4.8438   13.5345 H   0  0  0  0  0  0  0  0  0  0  0  0
  -11.1635   -4.6398   14.8740 H   0  0  0  0  0  0  0  0  0  0  0  0
  -11.6828   -4.3659   13.1940 H   0  0  0  0  0  0  0  0  0  0  0  0
  -10.7034   -5.0622    9.8886 H   0  0  0  0  0  0  0  0  0  0  0  0
  -11.7421   -3.8703   10.7152 H   0  0  0  0  0  0  0  0  0  0  0  0
  -10.6026   -3.3336    9.4555 H   0  0  0  0  0  0  0  0  0  0  0  0
   -8.1999   -3.5053    9.1977 H   0  0  0  0  0  0  0  0  0  0  0  0
   -7.6443   -4.2656    4.7771 H   0  0  0  0  0  0  0  0  0  0  0  0
   -7.7863   -6.6839    4.6663 H   0  0  0  0  0  0  0  0  0  0  0  0
   -6.8311   -8.7683    4.3169 H   0  0  0  0  0  0  0  0  0  0  0  0
   -8.5503   -8.8586    4.8037 H   0  0  0  0  0  0  0  0  0  0  0  0
   -6.5014  -11.1151    5.0948 H   0  0  0  0  0  0  0  0  0  0  0  0
   -8.1964  -11.2037    5.5769 H   0  0  0  0  0  0  0  0  0  0  0  0
   -7.7722  -11.0449    3.8674 H   0  0  0  0  0  0  0  0  0  0  0  0
   -6.0777   -4.5234    8.7562 H   0  0  0  0  0  0  0  0  0  0  0  0
   -8.3959    1.9908    7.2847 H   0  0  0  0  0  0  0  0  0  0  0  0
   -8.1294    4.3996    7.4490 H   0  0  0  0  0  0  0  0  0  0  0  0
   -6.9589    7.8259    8.2317 H   0  0  0  0  0  0  0  0  0  0  0  0
   -8.0273    6.5237    7.6913 H   0  0  0  0  0  0  0  0  0  0  0  0
   -7.2697    5.1381    9.6786 H   0  0  0  0  0  0  0  0  0  0  0  0
   -7.9918    6.6647   10.2001 H   0  0  0  0  0  0  0  0  0  0  0  0
   -6.2340    6.4744   10.1853 H   0  0  0  0  0  0  0  0  0  0  0  0
   -4.1715    1.5502    6.7376 H   0  0  0  0  0  0  0  0  0  0  0  0
   -5.0438    0.9021    4.5460 H   0  0  0  0  0  0  0  0  0  0  0  0
   -3.5489    1.1108    2.7130 H   0  0  0  0  0  0  0  0  0  0  0  0
    0.1530    2.6272    0.7994 H   0  0  0  0  0  0  0  0  0  0  0  0
    0.0061    4.9955    1.4332 H   0  0  0  0  0  0  0  0  0  0  0  0
   -4.4046    6.7951    2.6009 H   0  0  0  0  0  0  0  0  0  0  0  0
   -3.3684    7.9705    3.4310 H   0  0  0  0  0  0  0  0  0  0  0  0
   -2.3117    6.1074    4.7417 H   0  0  0  0  0  0  0  0  0  0  0  0
   -3.3883    4.9489    3.9604 H   0  0  0  0  0  0  0  0  0  0  0  0
   -4.0504    6.1884    5.0268 H   0  0  0  0  0  0  0  0  0  0  0  0
   -4.1251    2.4302    0.7047 H   0  0  0  0  0  0  0  0  0  0  0  0
   -1.5335   -4.0653    1.1604 H   0  0  0  0  0  0  0  0  0  0  0  0
   -1.5547   -6.4097    0.4374 H   0  0  0  0  0  0  0  0  0  0  0  0
   -0.9966   -8.8880   -3.7845 H   0  0  0  0  0  0  0  0  0  0  0  0
   -1.6446   -7.3465   -4.3735 H   0  0  0  0  0  0  0  0  0  0  0  0
    0.9152   -7.6654   -2.7086 H   0  0  0  0  0  0  0  0  0  0  0  0
    0.3122   -6.1445   -3.3769 H   0  0  0  0  0  0  0  0  0  0  0  0
    0.8867   -7.4189   -4.4589 H   0  0  0  0  0  0  0  0  0  0  0  0
   -2.2723   -2.8543   -2.8822 H   0  0  0  0  0  0  0  0  0  0  0  0
    0.0253   -2.1054   -2.5385 H   0  0  0  0  0  0  0  0  0  0  0  0
    1.4964   -1.8915   -4.3774 H   0  0  0  0  0  0  0  0  0  0  0  0
    3.5133   -3.2338   -4.2628 H   0  0  0  0  0  0  0  0  0  0  0  0
    2.8737   -5.5869   -4.5978 H   0  0  0  0  0  0  0  0  0  0  0  0
    0.4692   -8.1445   -8.0233 H   0  0  0  0  0  0  0  0  0  0  0  0
    1.1612   -6.8352   -8.9989 H   0  0  0  0  0  0  0  0  0  0  0  0
    0.0098   -5.1488   -7.5421 H   0  0  0  0  0  0  0  0  0  0  0  0
   -0.6465   -6.4498   -6.5458 H   0  0  0  0  0  0  0  0  0  0  0  0
   -1.1658   -6.2724   -8.2265 H   0  0  0  0  0  0  0  0  0  0  0  0
    3.1678   -2.5781   -8.4811 H   0  0  0  0  0  0  0  0  0  0  0  0
    4.7931    2.9783   -3.5580 H   0  0  0  0  0  0  0  0  0  0  0  0
    5.4986    5.3022   -3.4571 H   0  0  0  0  0  0  0  0  0  0  0  0
    7.1466    8.5801   -4.0903 H   0  0  0  0  0  0  0  0  0  0  0  0
    6.2098    7.3326   -3.2551 H   0  0  0  0  0  0  0  0  0  0  0  0
    8.8150    6.8933   -4.8304 H   0  0  0  0  0  0  0  0  0  0  0  0
    8.6782    6.8806   -3.0689 H   0  0  0  0  0  0  0  0  0  0  0  0
    7.9133    5.6102   -4.0290 H   0  0  0  0  0  0  0  0  0  0  0  0
    4.4699    3.2590   -7.8197 H   0  0  0  0  0  0  0  0  0  0  0  0
    6.5770    2.0482   -7.3877 H   0  0  0  0  0  0  0  0  0  0  0  0
    8.3117    2.2485   -8.6681 H   0  0  0  0  0  0  0  0  0  0  0  0
   10.6370    4.5989  -11.4321 H   0  0  0  0  0  0  0  0  0  0  0  0
   10.2583    6.7581  -10.3728 H   0  0  0  0  0  0  0  0  0  0  0  0
    9.6718    8.6896   -9.5832 H   0  0  0  0  0  0  0  0  0  0  0  0
    8.8291    9.4675   -8.2351 H   0  0  0  0  0  0  0  0  0  0  0  0
    7.7906    6.9946   -9.7235 H   0  0  0  0  0  0  0  0  0  0  0  0
    7.1771    8.6389   -9.9225 H   0  0  0  0  0  0  0  0  0  0  0  0
    6.9847    7.8018   -8.3791 H   0  0  0  0  0  0  0  0  0  0  0  0
   10.5115    2.6960   -7.5981 H   0  0  0  0  0  0  0  0  0  0  0  0
    9.0405   -2.0410  -12.5295 H   0  0  0  0  0  0  0  0  0  0  0  0
    9.2787   -4.3752  -13.2637 H   0  0  0  0  0  0  0  0  0  0  0  0
   13.2882   -6.7863  -11.8818 H   0  0  0  0  0  0  0  0  0  0  0  0
   12.2511   -8.1666  -12.2851 H   0  0  0  0  0  0  0  0  0  0  0  0
   11.5704   -5.9971  -10.2251 H   0  0  0  0  0  0  0  0  0  0  0  0
   10.5332   -7.3604  -10.6542 H   0  0  0  0  0  0  0  0  0  0  0  0
   12.0824   -7.6441   -9.8480 H   0  0  0  0  0  0  0  0  0  0  0  0
   13.0817   -2.1161  -11.1111 H   0  0  0  0  0  0  0  0  0  0  0  0
   13.2021   -0.5244  -13.0333 H   0  0  0  0  0  0  0  0  0  0  0  0
   14.5137    1.7170  -13.2017 H   0  0  0  0  0  0  0  0  0  0  0  0
  1  2  1  0  0  0  0
  2  3  1  0  0  0  0
  3  4  2  0  0  0  0
  4  5  1  0  0  0  0
  5  6  1  0  0  0  0
  6  7  1  0  0  0  0
  4  8  1  0  0  0  0
  8  9  1  0  0  0  0
  3 10  1  0  0  0  0
 10 11  1  0  0  0  0
 11 12  1  0  0  0  0
 12 13  2  0  0  0  0
 13 14  1  0  0  0  0
 14 15  1  0  0  0  0
 15 16  1  0  0  0  0
 13 17  1  0  0  0  0
 17 18  1  0  0  0  0
 12 19  1  0  0  0  0
 19 20  2  0  0  0  0
 20 21  1  0  0  0  0
 21 22  2  0  0  0  0
 22 23  1  0  0  0  0
 23 24  2  0  0  0  0
 24 25  1  0  0  0  0
 25 26  2  0  0  0  0
 26 27  1  0  0  0  0
 27 28  1  0  0  0  0
 28 29  1  0  0  0  0
 26 30  1  0  0  0  0
 30 31  1  0  0  0  0
 30 32  2  0  0  0  0
 22 33  1  0  0  0  0
 33 34  2  0  0  0  0
 34 35  1  0  0  0  0
 35 36  1  0  0  0  0
 36 37  2  0  0  0  0
 37 38  1  0  0  0  0
 38 39  2  0  0  0  0
 39 40  1  0  0  0  0
 40 41  1  0  0  0  0
 41 42  1  0  0  0  0
 39 43  1  0  0  0  0
 43 44  2  0  0  0  0
 43 45  1  0  0  0  0
 35 46  2  0  0  0  0
 46 47  1  0  0  0  0
 34 48  1  0  0  0  0
 48 49  2  0  0  0  0
 49 50  1  0  0  0  0
 49 51  1  0  0  0  0
 51 52  2  0  0  0  0
 52 53  1  0  0  0  0
 53 54  2  0  0  0  0
 54 55  1  0  0  0  0
 55 56  2  0  0  0  0
 56 57  1  0  0  0  0
 57 58  2  0  0  0  0
 58 59  1  0  0  0  0
 59 60  1  0  0  0  0
 60 61  1  0  0  0  0
 58 62  1  0  0  0  0
 62 63  1  0  0  0  0
 62 64  2  0  0  0  0
 54 65  1  0  0  0  0
 65 66  2  0  0  0  0
 66 67  1  0  0  0  0
 67 68  1  0  0  0  0
 68 69  2  0  0  0  0
 69 70  1  0  0  0  0
 70 71  2  0  0  0  0
 71 72  1  0  0  0  0
 72 73  1  0  0  0  0
 73 74  1  0  0  0  0
 71 75  1  0  0  0  0
 75 76  2  0  0  0  0
 75 77  1  0  0  0  0
 67 78  2  0  0  0  0
 78 79  1  0  0  0  0
 66 80  1  0  0  0  0
 80 81  2  0  0  0  0
 81 82  1  0  0  0  0
 81 83  1  0  0  0  0
 83 84  2  0  0  0  0
 84 85  1  0  0  0  0
 85 86  2  0  0  0  0
 86 87  1  0  0  0  0
 87 88  2  0  0  0  0
 88 89  1  0  0  0  0
 89 90  2  0  0  0  0
 90 91  1  0  0  0  0
 91 92  1  0  0  0  0
 92 93  1  0  0  0  0
 90 94  1  0  0  0  0
 94 95  1  0  0  0  0
 94 96  2  0  0  0  0
 86 97  1  0  0  0  0
 97 98  2  0  0  0  0
 98 99  1  0  0  0  0
 99100  1  0  0  0  0
100101  2  0  0  0  0
101102  1  0  0  0  0
102103  2  0  0  0  0
103104  1  0  0  0  0
104105  1  0  0  0  0
105106  1  0  0  0  0
103107  1  0  0  0  0
107108  2  0  0  0  0
107109  1  0  0  0  0
 99110  2  0  0  0  0
110111  1  0  0  0  0
 98112  1  0  0  0  0
112113  2  0  0  0  0
113114  1  0  0  0  0
113115  1  0  0  0  0
115116  2  0  0  0  0
116117  1  0  0  0  0
117118  2  0  0  0  0
118119  1  0  0  0  0
119120  2  0  0  0  0
120121  1  0  0  0  0
121122  2  0  0  0  0
122123  1  0  0  0  0
123124  1  0  0  0  0
124125  1  0  0  0  0
122126  1  0  0  0  0
126127  1  0  0  0  0
126128  2  0  0  0  0
118129  1  0  0  0  0
129130  2  0  0  0  0
130131  1  0  0  0  0
131132  1  0  0  0  0
132133  2  0  0  0  0
133134  1  0  0  0  0
134135  2  0  0  0  0
135136  1  0  0  0  0
136137  1  0  0  0  0
137138  1  0  0  0  0
135139  1  0  0  0  0
139140  2  0  0  0  0
139141  1  0  0  0  0
131142  2  0  0  0  0
142143  1  0  0  0  0
130144  1  0  0  0  0
144145  2  0  0  0  0
145146  1  0  0  0  0
  5  1  2  0  0  0  0
 14 10  2  0  0  0  0
 47 19  1  0  0  0  0
 79 51  1  0  0  0  0
111 83  1  0  0  0  0
143115  1  0  0  0  0
 46 21  1  0  0  0  0
 78 53  1  0  0  0  0
110 85  1  0  0  0  0
142117  1  0  0  0  0
 32 23  1  0  0  0  0
 50 33  1  0  0  0  0
 64 55  1  0  0  0  0
 82 65  1  0  0  0  0
 96 87  1  0  0  0  0
114 97  1  0  0  0  0
128119  1  0  0  0  0
146129  1  0  0  0  0
 44 36  1  0  0  0  0
 76 68  1  0  0  0  0
108100  1  0  0  0  0
140132  1  0  0  0  0
  1147  1  0  0  0  0
  7148  1  0  0  0  0
  7149  1  0  0  0  0
  7150  1  0  0  0  0
  9151  1  0  0  0  0
  9152  1  0  0  0  0
  9153  1  0  0  0  0
 16154  1  0  0  0  0
 16155  1  0  0  0  0
 16156  1  0  0  0  0
 18157  1  0  0  0  0
 18158  1  0  0  0  0
 18159  1  0  0  0  0
 20160  1  0  0  0  0
 24161  1  0  0  0  0
 25162  1  0  0  0  0
 28163  1  0  0  0  0
 28164  1  0  0  0  0
 29165  1  0  0  0  0
 29166  1  0  0  0  0
 29167  1  0  0  0  0
 32168  1  0  0  0  0
 37169  1  0  0  0  0
 38170  1  0  0  0  0
 41171  1  0  0  0  0
 41172  1  0  0  0  0
 42173  1  0  0  0  0
 42174  1  0  0  0  0
 42175  1  0  0  0  0
 44176  1  0  0  0  0
 48177  1  0  0  0  0
 52178  1  0  0  0  0
 56179  1  0  0  0  0
 57180  1  0  0  0  0
 60181  1  0  0  0  0
 60182  1  0  0  0  0
 61183  1  0  0  0  0
 61184  1  0  0  0  0
 61185  1  0  0  0  0
 64186  1  0  0  0  0
 69187  1  0  0  0  0
 70188  1  0  0  0  0
 73189  1  0  0  0  0
 73190  1  0  0  0  0
 74191  1  0  0  0  0
 74192  1  0  0  0  0
 74193  1  0  0  0  0
 76194  1  0  0  0  0
 80195  1  0  0  0  0
 84196  1  0  0  0  0
 88197  1  0  0  0  0
 89198  1  0  0  0  0
 92199  1  0  0  0  0
 92200  1  0  0  0  0
 93201  1  0  0  0  0
 93202  1  0  0  0  0
 93203  1  0  0  0  0
 96204  1  0  0  0  0
101205  1  0  0  0  0
102206  1  0  0  0  0
105207  1  0  0  0  0
105208  1  0  0  0  0
106209  1  0  0  0  0
106210  1  0  0  0  0
106211  1  0  0  0  0
108212  1  0  0  0  0
112213  1  0  0  0  0
116214  1  0  0  0  0
120215  1  0  0  0  0
121216  1  0  0  0  0
124217  1  0  0  0  0
124218  1  0  0  0  0
125219  1  0  0  0  0
125220  1  0  0  0  0
125221  1  0  0  0  0
128222  1  0  0  0  0
133223  1  0  0  0  0
134224  1  0  0  0  0
137225  1  0  0  0  0
137226  1  0  0  0  0
138227  1  0  0  0  0
138228  1  0  0  0  0
138229  1  0  0  0  0
140230  1  0  0  0  0
144231  1  0  0  0  0
145232  1  0  0  0  0
M  END
