
  xtb     03042213233D
 energy: -189.959382676509 gnorm: 0.000254091405 xtb: 6.4.1 (unknown)
100113  0     0  0            999 V2000
    4.0198   -3.7548   -0.7800 C   0  0  0  0  0  0  0  0  0  0  0  0
    2.5495   -4.2940   -1.4968 S   0  0  0  0  0  0  0  0  0  0  0  0
    1.8425   -2.7227   -1.4136 C   0  0  0  0  0  0  0  0  0  0  0  0
    2.7108   -1.8379   -0.8677 C   0  0  0  0  0  0  0  0  0  0  0  0
    3.9750   -2.4211   -0.4979 C   0  0  0  0  0  0  0  0  0  0  0  0
    4.8272   -1.4259    0.0501 C   0  0  0  0  0  0  0  0  0  0  0  0
    4.2546   -0.1645    0.0809 C   0  0  0  0  0  0  0  0  0  0  0  0
    2.6101   -0.1231   -0.5299 S   0  0  0  0  0  0  0  0  0  0  0  0
    5.0905    0.8281    0.6010 C   0  0  0  0  0  0  0  0  0  0  0  0
    6.3030    0.3278    1.0063 C   0  0  0  0  0  0  0  0  0  0  0  0
    6.4316   -1.3907    0.6755 S   0  0  0  0  0  0  0  0  0  0  0  0
    7.4121    1.0158    1.6155 C   0  0  0  0  0  0  0  0  0  0  0  0
    7.3293    2.0020    2.5341 C   0  0  0  0  0  0  0  0  0  0  0  0
    6.1245    2.4138    3.1932 C   0  0  0  0  0  0  0  0  0  0  0  0
    5.0535    1.6030    3.1361 O   0  0  0  0  0  0  0  0  0  0  0  0
    4.0246    2.1821    3.7920 C   0  0  0  0  0  0  0  0  0  0  0  0
    4.4358    3.3952    4.3290 C   0  0  0  0  0  0  0  0  0  0  0  0
    5.7990    3.5405    3.9424 C   0  0  0  0  0  0  0  0  0  0  0  0
    6.6321    4.5852    4.2556 O   0  0  0  0  0  0  0  0  0  0  0  0
    7.0369    5.3796    3.1560 C   0  0  0  0  0  0  0  0  0  0  0  0
    3.6395    4.1752    5.0870 O   0  0  0  0  0  0  0  0  0  0  0  0
    4.1668    5.4097    5.5249 C   0  0  0  0  0  0  0  0  0  0  0  0
    2.7961    1.4628    3.7020 C   0  0  0  0  0  0  0  0  0  0  0  0
    2.9013    0.2087    3.1988 O   0  0  0  0  0  0  0  0  0  0  0  0
    1.6600   -0.2953    3.0478 C   0  0  0  0  0  0  0  0  0  0  0  0
    0.7236    0.6327    3.4874 C   0  0  0  0  0  0  0  0  0  0  0  0
    1.4596    1.7775    3.9049 C   0  0  0  0  0  0  0  0  0  0  0  0
    1.0447    2.9728    4.3663 O   0  0  0  0  0  0  0  0  0  0  0  0
   -0.3416    3.1396    4.5810 C   0  0  0  0  0  0  0  0  0  0  0  0
   -0.6367    0.4799    3.5298 O   0  0  0  0  0  0  0  0  0  0  0  0
   -1.0960   -0.5553    4.3798 C   0  0  0  0  0  0  0  0  0  0  0  0
    1.5641   -1.6214    2.5404 C   0  0  0  0  0  0  0  0  0  0  0  0
    2.9156   -2.7031    2.7815 S   0  0  0  0  0  0  0  0  0  0  0  0
    2.1016   -4.0081    1.9987 C   0  0  0  0  0  0  0  0  0  0  0  0
    0.8762   -3.6247    1.5636 C   0  0  0  0  0  0  0  0  0  0  0  0
    0.5519   -2.2539    1.8456 C   0  0  0  0  0  0  0  0  0  0  0  0
   -0.6890   -1.9108    1.2592 C   0  0  0  0  0  0  0  0  0  0  0  0
   -1.2972   -2.9764    0.5998 C   0  0  0  0  0  0  0  0  0  0  0  0
   -0.3774   -4.4663    0.6780 S   0  0  0  0  0  0  0  0  0  0  0  0
   -2.4942   -2.6537   -0.0302 C   0  0  0  0  0  0  0  0  0  0  0  0
   -2.8070   -1.3148    0.1175 C   0  0  0  0  0  0  0  0  0  0  0  0
   -1.6112   -0.4685    1.0806 S   0  0  0  0  0  0  0  0  0  0  0  0
   -3.9027   -0.6004   -0.4404 C   0  0  0  0  0  0  0  0  0  0  0  0
   -4.8063   -1.1847   -1.2600 C   0  0  0  0  0  0  0  0  0  0  0  0
   -5.8642   -0.5750   -1.9711 C   0  0  0  0  0  0  0  0  0  0  0  0
   -6.3631    1.0960   -1.8850 S   0  0  0  0  0  0  0  0  0  0  0  0
   -7.5177    0.9061   -3.1604 C   0  0  0  0  0  0  0  0  0  0  0  0
   -7.5230   -0.3683   -3.6292 C   0  0  0  0  0  0  0  0  0  0  0  0
   -6.6055   -1.2234   -2.9438 C   0  0  0  0  0  0  0  0  0  0  0  0
   -6.5610   -2.4957   -3.5443 C   0  0  0  0  0  0  0  0  0  0  0  0
   -7.3590   -2.6153   -4.6733 C   0  0  0  0  0  0  0  0  0  0  0  0
   -8.3182   -1.1724   -4.9731 S   0  0  0  0  0  0  0  0  0  0  0  0
   -7.1092   -3.7826   -5.4071 C   0  0  0  0  0  0  0  0  0  0  0  0
   -6.0896   -4.5312   -4.8598 C   0  0  0  0  0  0  0  0  0  0  0  0
   -5.5611   -3.8772   -3.3244 S   0  0  0  0  0  0  0  0  0  0  0  0
   -5.4459   -5.6694   -5.4468 C   0  0  0  0  0  0  0  0  0  0  0  0
   -4.1623   -6.0534   -5.2905 C   0  0  0  0  0  0  0  0  0  0  0  0
   -3.1148   -5.3951   -4.5541 C   0  0  0  0  0  0  0  0  0  0  0  0
   -2.0193   -6.3900   -3.6160 S   0  0  0  0  0  0  0  0  0  0  0  0
   -1.2023   -5.0292   -2.9494 C   0  0  0  0  0  0  0  0  0  0  0  0
   -1.7135   -3.8770   -3.4497 C   0  0  0  0  0  0  0  0  0  0  0  0
   -2.7735   -4.0657   -4.4018 C   0  0  0  0  0  0  0  0  0  0  0  0
   -3.2149   -2.8038   -4.8805 C   0  0  0  0  0  0  0  0  0  0  0  0
   -2.6216   -1.7242   -4.2401 C   0  0  0  0  0  0  0  0  0  0  0  0
   -1.3768   -2.1913   -3.1050 S   0  0  0  0  0  0  0  0  0  0  0  0
   -3.1432   -0.4792   -4.6047 C   0  0  0  0  0  0  0  0  0  0  0  0
   -4.1168   -0.5959   -5.5668 C   0  0  0  0  0  0  0  0  0  0  0  0
   -4.3564   -2.2602   -6.0507 S   0  0  0  0  0  0  0  0  0  0  0  0
   -4.9508    0.4114   -6.1629 C   0  0  0  0  0  0  0  0  0  0  0  0
   -5.0212    1.6795   -5.7653 C   0  0  0  0  0  0  0  0  0  0  0  0
    4.8221   -4.4453   -0.6200 H   0  0  0  0  0  0  0  0  0  0  0  0
    0.8485   -2.5596   -1.7754 H   0  0  0  0  0  0  0  0  0  0  0  0
    4.8209    1.8657    0.6628 H   0  0  0  0  0  0  0  0  0  0  0  0
    8.3943    0.6853    1.3036 H   0  0  0  0  0  0  0  0  0  0  0  0
    8.2317    2.4999    2.8588 H   0  0  0  0  0  0  0  0  0  0  0  0
    7.7338    6.1124    3.5583 H   0  0  0  0  0  0  0  0  0  0  0  0
    7.5312    4.7838    2.3847 H   0  0  0  0  0  0  0  0  0  0  0  0
    6.1804    5.8975    2.7091 H   0  0  0  0  0  0  0  0  0  0  0  0
    3.4118    5.8297    6.1873 H   0  0  0  0  0  0  0  0  0  0  0  0
    4.3328    6.0926    4.6861 H   0  0  0  0  0  0  0  0  0  0  0  0
    5.1054    5.2750    6.0676 H   0  0  0  0  0  0  0  0  0  0  0  0
   -0.6990    2.4988    5.3925 H   0  0  0  0  0  0  0  0  0  0  0  0
   -0.4676    4.1834    4.8632 H   0  0  0  0  0  0  0  0  0  0  0  0
   -0.9156    2.9244    3.6767 H   0  0  0  0  0  0  0  0  0  0  0  0
   -2.1788   -0.5671    4.2735 H   0  0  0  0  0  0  0  0  0  0  0  0
   -0.8294   -0.3521    5.4223 H   0  0  0  0  0  0  0  0  0  0  0  0
   -0.6898   -1.5283    4.0927 H   0  0  0  0  0  0  0  0  0  0  0  0
    2.5807   -4.9605    1.9034 H   0  0  0  0  0  0  0  0  0  0  0  0
   -3.0890   -3.3623   -0.5752 H   0  0  0  0  0  0  0  0  0  0  0  0
   -3.9728    0.4556   -0.2183 H   0  0  0  0  0  0  0  0  0  0  0  0
   -4.7098   -2.2423   -1.4680 H   0  0  0  0  0  0  0  0  0  0  0  0
   -8.0955    1.7488   -3.4795 H   0  0  0  0  0  0  0  0  0  0  0  0
   -7.5835   -4.0268   -6.3397 H   0  0  0  0  0  0  0  0  0  0  0  0
   -6.0722   -6.2555   -6.1073 H   0  0  0  0  0  0  0  0  0  0  0  0
   -3.8674   -6.9977   -5.7315 H   0  0  0  0  0  0  0  0  0  0  0  0
   -0.4210   -5.1713   -2.2307 H   0  0  0  0  0  0  0  0  0  0  0  0
   -2.8255    0.4528   -4.1769 H   0  0  0  0  0  0  0  0  0  0  0  0
   -5.5786    0.0626   -6.9726 H   0  0  0  0  0  0  0  0  0  0  0  0
   -5.6830    2.3778   -6.2456 H   0  0  0  0  0  0  0  0  0  0  0  0
   -4.4283    2.0579   -4.9508 H   0  0  0  0  0  0  0  0  0  0  0  0
  1  2  1  0  0  0  0
  2  3  1  0  0  0  0
  3  4  2  0  0  0  0
  4  5  1  0  0  0  0
  5  6  1  0  0  0  0
  6  7  2  0  0  0  0
  7  8  1  0  0  0  0
  7  9  1  0  0  0  0
  9 10  2  0  0  0  0
 10 11  1  0  0  0  0
 10 12  1  0  0  0  0
 12 13  2  0  0  0  0
 13 14  1  0  0  0  0
 14 15  1  0  0  0  0
 15 16  1  0  0  0  0
 16 17  2  0  0  0  0
 17 18  1  0  0  0  0
 18 19  1  0  0  0  0
 19 20  1  0  0  0  0
 17 21  1  0  0  0  0
 21 22  1  0  0  0  0
 16 23  1  0  0  0  0
 23 24  1  0  0  0  0
 24 25  1  0  0  0  0
 25 26  2  0  0  0  0
 26 27  1  0  0  0  0
 27 28  1  0  0  0  0
 28 29  1  0  0  0  0
 26 30  1  0  0  0  0
 30 31  1  0  0  0  0
 25 32  1  0  0  0  0
 32 33  1  0  0  0  0
 33 34  1  0  0  0  0
 34 35  2  0  0  0  0
 35 36  1  0  0  0  0
 36 37  1  0  0  0  0
 37 38  2  0  0  0  0
 38 39  1  0  0  0  0
 38 40  1  0  0  0  0
 40 41  2  0  0  0  0
 41 42  1  0  0  0  0
 41 43  1  0  0  0  0
 43 44  2  0  0  0  0
 44 45  1  0  0  0  0
 45 46  1  0  0  0  0
 46 47  1  0  0  0  0
 47 48  2  0  0  0  0
 48 49  1  0  0  0  0
 49 50  1  0  0  0  0
 50 51  2  0  0  0  0
 51 52  1  0  0  0  0
 51 53  1  0  0  0  0
 53 54  2  0  0  0  0
 54 55  1  0  0  0  0
 54 56  1  0  0  0  0
 56 57  2  0  0  0  0
 57 58  1  0  0  0  0
 58 59  1  0  0  0  0
 59 60  1  0  0  0  0
 60 61  2  0  0  0  0
 61 62  1  0  0  0  0
 62 63  1  0  0  0  0
 63 64  2  0  0  0  0
 64 65  1  0  0  0  0
 64 66  1  0  0  0  0
 66 67  2  0  0  0  0
 67 68  1  0  0  0  0
 67 69  1  0  0  0  0
 69 70  2  0  0  0  0
  5  1  2  0  0  0  0
 11  6  1  0  0  0  0
 18 14  2  0  0  0  0
 27 23  2  0  0  0  0
 36 32  2  0  0  0  0
 42 37  1  0  0  0  0
 49 45  2  0  0  0  0
 55 50  1  0  0  0  0
 62 58  2  0  0  0  0
 68 63  1  0  0  0  0
  8  4  1  0  0  0  0
 39 35  1  0  0  0  0
 52 48  1  0  0  0  0
 65 61  1  0  0  0  0
  1 71  1  0  0  0  0
  3 72  1  0  0  0  0
  9 73  1  0  0  0  0
 12 74  1  0  0  0  0
 13 75  1  0  0  0  0
 20 76  1  0  0  0  0
 20 77  1  0  0  0  0
 20 78  1  0  0  0  0
 22 79  1  0  0  0  0
 22 80  1  0  0  0  0
 22 81  1  0  0  0  0
 29 82  1  0  0  0  0
 29 83  1  0  0  0  0
 29 84  1  0  0  0  0
 31 85  1  0  0  0  0
 31 86  1  0  0  0  0
 31 87  1  0  0  0  0
 34 88  1  0  0  0  0
 40 89  1  0  0  0  0
 43 90  1  0  0  0  0
 44 91  1  0  0  0  0
 47 92  1  0  0  0  0
 53 93  1  0  0  0  0
 56 94  1  0  0  0  0
 57 95  1  0  0  0  0
 60 96  1  0  0  0  0
 66 97  1  0  0  0  0
 69 98  1  0  0  0  0
 70 99  1  0  0  0  0
 70100  1  0  0  0  0
M  END
