
  xtb     03032221033D
 energy: -422.066494455909 gnorm: 0.000195323083 xtb: 6.4.1 (unknown)
242265  0     0  0            999 V2000
   -2.4600   -2.4860   10.6407 C   0  0  0  0  0  0  0  0  0  0  0  0
   -3.0225   -1.6428    9.7524 C   0  0  0  0  0  0  0  0  0  0  0  0
   -3.6806   -2.3204    8.6827 C   0  0  0  0  0  0  0  0  0  0  0  0
   -4.3946   -1.7630    7.6122 C   0  0  0  0  0  0  0  0  0  0  0  0
   -4.3672   -0.3243    7.3196 C   0  0  0  0  0  0  0  0  0  0  0  0
   -3.1422    0.3337    7.2355 C   0  0  0  0  0  0  0  0  0  0  0  0
   -3.0627    1.6518    6.8318 C   0  0  0  0  0  0  0  0  0  0  0  0
   -4.2103    2.3629    6.4966 C   0  0  0  0  0  0  0  0  0  0  0  0
   -4.2168    4.0269    5.9201 S   0  0  0  0  0  0  0  0  0  0  0  0
   -2.4958    4.2566    5.3232 C   0  0  0  0  0  0  0  0  0  0  0  0
   -2.4427    5.4688    4.4126 C   0  0  0  0  0  0  0  0  0  0  0  0
   -5.4348    1.7055    6.6303 C   0  0  0  0  0  0  0  0  0  0  0  0
   -6.5716    2.3738    6.3495 F   0  0  0  0  0  0  0  0  0  0  0  0
   -5.5264    0.3882    7.0227 C   0  0  0  0  0  0  0  0  0  0  0  0
   -5.0221   -2.6542    6.7532 C   0  0  0  0  0  0  0  0  0  0  0  0
   -4.8833   -4.0613    6.8527 C   0  0  0  0  0  0  0  0  0  0  0  0
   -4.1465   -4.6164    7.9102 C   0  0  0  0  0  0  0  0  0  0  0  0
   -3.9720   -6.0668    8.0484 C   0  0  0  0  0  0  0  0  0  0  0  0
   -5.0646   -6.9318    8.0171 C   0  0  0  0  0  0  0  0  0  0  0  0
   -4.8892   -8.2891    8.1810 C   0  0  0  0  0  0  0  0  0  0  0  0
   -3.6222   -8.8404    8.3619 C   0  0  0  0  0  0  0  0  0  0  0  0
   -3.5129  -10.5990    8.5240 S   0  0  0  0  0  0  0  0  0  0  0  0
   -2.2463  -10.8416    9.8244 C   0  0  0  0  0  0  0  0  0  0  0  0
   -2.6101  -10.1305   11.1122 C   0  0  0  0  0  0  0  0  0  0  0  0
   -2.5379   -7.9689    8.3533 C   0  0  0  0  0  0  0  0  0  0  0  0
   -2.7014   -6.6054    8.2208 C   0  0  0  0  0  0  0  0  0  0  0  0
   -1.2738   -8.4338    8.4690 F   0  0  0  0  0  0  0  0  0  0  0  0
   -3.5808   -3.7251    8.8130 C   0  0  0  0  0  0  0  0  0  0  0  0
   -2.6760   -4.1573   10.2425 S   0  0  0  0  0  0  0  0  0  0  0  0
   -5.4667   -4.7334    5.7434 C   0  0  0  0  0  0  0  0  0  0  0  0
   -6.0626   -3.8931    4.8542 C   0  0  0  0  0  0  0  0  0  0  0  0
   -5.9544   -2.2109    5.3491 S   0  0  0  0  0  0  0  0  0  0  0  0
   -6.5825   -4.1667    3.5520 C   0  0  0  0  0  0  0  0  0  0  0  0
   -7.7149   -3.0833    2.7950 S   0  0  0  0  0  0  0  0  0  0  0  0
   -7.4410   -3.8173    1.2544 C   0  0  0  0  0  0  0  0  0  0  0  0
   -6.5790   -4.8947    1.3456 C   0  0  0  0  0  0  0  0  0  0  0  0
   -6.1195   -5.1254    2.6659 C   0  0  0  0  0  0  0  0  0  0  0  0
   -5.2710   -6.0935    3.0916 O   0  0  0  0  0  0  0  0  0  0  0  0
   -4.6419   -6.8711    2.0875 C   0  0  0  0  0  0  0  0  0  0  0  0
   -3.9813   -5.9998    1.0203 C   0  0  0  0  0  0  0  0  0  0  0  0
   -4.9257   -5.7501   -0.1554 C   0  0  0  0  0  0  0  0  0  0  0  0
   -4.8507   -7.1789   -1.2937 S   0  0  0  0  0  0  0  0  0  0  0  0
   -5.8337   -6.5156   -2.6629 C   0  0  0  0  0  0  0  0  0  0  0  0
   -6.2821   -5.6051    0.2061 O   0  0  0  0  0  0  0  0  0  0  0  0
   -7.8764   -3.1926    0.0584 C   0  0  0  0  0  0  0  0  0  0  0  0
   -7.0329   -3.4557   -1.4276 S   0  0  0  0  0  0  0  0  0  0  0  0
   -7.7619   -2.0469   -2.1397 C   0  0  0  0  0  0  0  0  0  0  0  0
   -8.7241   -1.4992   -1.3057 C   0  0  0  0  0  0  0  0  0  0  0  0
   -8.7874   -2.1567   -0.0487 C   0  0  0  0  0  0  0  0  0  0  0  0
   -9.5424   -1.8858    1.0456 O   0  0  0  0  0  0  0  0  0  0  0  0
  -10.4001   -0.7673    1.0108 C   0  0  0  0  0  0  0  0  0  0  0  0
   -9.7041    0.4852    0.4827 C   0  0  0  0  0  0  0  0  0  0  0  0
   -9.8700    0.6126   -1.0229 C   0  0  0  0  0  0  0  0  0  0  0  0
   -8.8683    2.0628   -1.5834 S   0  0  0  0  0  0  0  0  0  0  0  0
   -9.6646    2.3481   -3.1891 C   0  0  0  0  0  0  0  0  0  0  0  0
   -9.5631   -0.5213   -1.7788 O   0  0  0  0  0  0  0  0  0  0  0  0
   -7.0921   -1.4628   -3.2580 C   0  0  0  0  0  0  0  0  0  0  0  0
   -6.8942   -0.1323   -3.4769 C   0  0  0  0  0  0  0  0  0  0  0  0
   -5.7825    0.1449   -4.3087 C   0  0  0  0  0  0  0  0  0  0  0  0
   -5.1864    1.3963   -4.5070 C   0  0  0  0  0  0  0  0  0  0  0  0
   -5.7855    2.6560   -4.0274 C   0  0  0  0  0  0  0  0  0  0  0  0
   -6.2706    3.5901   -4.9383 C   0  0  0  0  0  0  0  0  0  0  0  0
   -6.7989    4.7840   -4.4974 C   0  0  0  0  0  0  0  0  0  0  0  0
   -6.8352    5.1107   -3.1405 C   0  0  0  0  0  0  0  0  0  0  0  0
   -7.4513    6.7233   -2.7640 S   0  0  0  0  0  0  0  0  0  0  0  0
   -8.1064    6.6589   -1.0571 C   0  0  0  0  0  0  0  0  0  0  0  0
   -9.2811    5.7117   -0.9285 C   0  0  0  0  0  0  0  0  0  0  0  0
   -6.3201    4.1768   -2.2471 C   0  0  0  0  0  0  0  0  0  0  0  0
   -6.2666    4.4304   -0.9227 F   0  0  0  0  0  0  0  0  0  0  0  0
   -5.8222    2.9600   -2.6742 C   0  0  0  0  0  0  0  0  0  0  0  0
   -3.9224    1.3933   -5.0681 C   0  0  0  0  0  0  0  0  0  0  0  0
   -3.2945    0.2197   -5.5469 C   0  0  0  0  0  0  0  0  0  0  0  0
   -3.9531   -1.0229   -5.4714 C   0  0  0  0  0  0  0  0  0  0  0  0
   -3.2845   -2.2152   -6.0054 C   0  0  0  0  0  0  0  0  0  0  0  0
   -3.0868   -3.3686   -5.2494 C   0  0  0  0  0  0  0  0  0  0  0  0
   -2.3542   -4.4208   -5.7562 C   0  0  0  0  0  0  0  0  0  0  0  0
   -1.8102   -4.3805   -7.0399 C   0  0  0  0  0  0  0  0  0  0  0  0
   -0.8744   -5.7852   -7.5631 S   0  0  0  0  0  0  0  0  0  0  0  0
    0.4435   -5.0988   -8.6363 C   0  0  0  0  0  0  0  0  0  0  0  0
    1.3000   -4.0711   -7.9245 C   0  0  0  0  0  0  0  0  0  0  0  0
   -2.0771   -3.2512   -7.8088 C   0  0  0  0  0  0  0  0  0  0  0  0
   -2.7761   -2.1763   -7.3007 C   0  0  0  0  0  0  0  0  0  0  0  0
   -1.6496   -3.1601   -9.0877 F   0  0  0  0  0  0  0  0  0  0  0  0
   -5.1556   -1.0367   -4.7844 C   0  0  0  0  0  0  0  0  0  0  0  0
   -6.0186   -2.4550   -4.2361 S   0  0  0  0  0  0  0  0  0  0  0  0
   -1.9173    0.4340   -5.8065 C   0  0  0  0  0  0  0  0  0  0  0  0
   -1.4936    1.6909   -5.4847 C   0  0  0  0  0  0  0  0  0  0  0  0
   -2.8157    2.7414   -5.0166 S   0  0  0  0  0  0  0  0  0  0  0  0
   -0.1343    2.0549   -5.2204 C   0  0  0  0  0  0  0  0  0  0  0  0
    0.9999    1.4493   -5.6708 C   0  0  0  0  0  0  0  0  0  0  0  0
    2.1580    1.7912   -4.9251 C   0  0  0  0  0  0  0  0  0  0  0  0
    3.4522    1.2620   -5.0555 C   0  0  0  0  0  0  0  0  0  0  0  0
    3.7749    0.3113   -6.1268 C   0  0  0  0  0  0  0  0  0  0  0  0
    4.3512   -0.9201   -5.8314 C   0  0  0  0  0  0  0  0  0  0  0  0
    4.6272   -1.8397   -6.8245 C   0  0  0  0  0  0  0  0  0  0  0  0
    4.3453   -1.5530   -8.1550 C   0  0  0  0  0  0  0  0  0  0  0  0
    4.6402   -2.6365   -9.5108 S   0  0  0  0  0  0  0  0  0  0  0  0
    5.6566   -3.9673   -8.7663 C   0  0  0  0  0  0  0  0  0  0  0  0
    6.1912   -4.8508   -9.8775 C   0  0  0  0  0  0  0  0  0  0  0  0
    3.7665   -0.3139   -8.4381 C   0  0  0  0  0  0  0  0  0  0  0  0
    3.4767   -0.0073   -9.7183 F   0  0  0  0  0  0  0  0  0  0  0  0
    3.4791    0.6069   -7.4564 C   0  0  0  0  0  0  0  0  0  0  0  0
    4.3703    1.6221   -4.0815 C   0  0  0  0  0  0  0  0  0  0  0  0
    4.0591    2.4723   -2.9903 C   0  0  0  0  0  0  0  0  0  0  0  0
    2.7707    3.0172   -2.8719 C   0  0  0  0  0  0  0  0  0  0  0  0
    2.3744    3.8200   -1.7059 C   0  0  0  0  0  0  0  0  0  0  0  0
    1.2738    3.4326   -0.9417 C   0  0  0  0  0  0  0  0  0  0  0  0
    0.8912    4.1615    0.1615 C   0  0  0  0  0  0  0  0  0  0  0  0
    1.5879    5.3039    0.5540 C   0  0  0  0  0  0  0  0  0  0  0  0
    1.0169    6.1168    2.0124 S   0  0  0  0  0  0  0  0  0  0  0  0
    1.4269    7.8868    1.7403 C   0  0  0  0  0  0  0  0  0  0  0  0
    0.5176    8.7346    2.6080 C   0  0  0  0  0  0  0  0  0  0  0  0
    2.6964    5.6674   -0.2047 C   0  0  0  0  0  0  0  0  0  0  0  0
    3.0855    4.9498   -1.3196 C   0  0  0  0  0  0  0  0  0  0  0  0
    3.4449    6.7434    0.1301 F   0  0  0  0  0  0  0  0  0  0  0  0
    1.8560    2.6678   -3.8536 C   0  0  0  0  0  0  0  0  0  0  0  0
    0.1816    3.1518   -3.8878 S   0  0  0  0  0  0  0  0  0  0  0  0
    5.1416    2.5811   -2.0793 C   0  0  0  0  0  0  0  0  0  0  0  0
    6.2471    1.8826   -2.4592 C   0  0  0  0  0  0  0  0  0  0  0  0
    6.0175    1.0559   -3.9904 S   0  0  0  0  0  0  0  0  0  0  0  0
    7.4717    1.7022   -1.7507 C   0  0  0  0  0  0  0  0  0  0  0  0
    8.5780    1.0354   -2.1825 C   0  0  0  0  0  0  0  0  0  0  0  0
    9.6110    0.9585   -1.2143 C   0  0  0  0  0  0  0  0  0  0  0  0
   10.8737    0.3606   -1.3479 C   0  0  0  0  0  0  0  0  0  0  0  0
   11.2394   -0.3697   -2.5670 C   0  0  0  0  0  0  0  0  0  0  0  0
   10.3992   -1.3556   -3.0773 C   0  0  0  0  0  0  0  0  0  0  0  0
   10.7230   -2.0490   -4.2271 C   0  0  0  0  0  0  0  0  0  0  0  0
   11.8969   -1.7716   -4.9177 C   0  0  0  0  0  0  0  0  0  0  0  0
   12.4349   -2.5677   -6.3939 S   0  0  0  0  0  0  0  0  0  0  0  0
   10.9884   -3.5370   -6.9443 C   0  0  0  0  0  0  0  0  0  0  0  0
    9.8800   -2.6666   -7.5069 C   0  0  0  0  0  0  0  0  0  0  0  0
   12.7385   -0.7930   -4.3842 C   0  0  0  0  0  0  0  0  0  0  0  0
   13.8903   -0.5063   -5.0225 F   0  0  0  0  0  0  0  0  0  0  0  0
   12.4332   -0.1026   -3.2332 C   0  0  0  0  0  0  0  0  0  0  0  0
   11.7306    0.4721   -0.2624 C   0  0  0  0  0  0  0  0  0  0  0  0
   11.3686    1.1141    0.9468 C   0  0  0  0  0  0  0  0  0  0  0  0
   10.1012    1.6998    1.0847 C   0  0  0  0  0  0  0  0  0  0  0  0
    9.6863    2.3585    2.3299 C   0  0  0  0  0  0  0  0  0  0  0  0
   10.4698    3.3428    2.9236 C   0  0  0  0  0  0  0  0  0  0  0  0
   10.0801    3.9576    4.0988 C   0  0  0  0  0  0  0  0  0  0  0  0
    8.8914    3.6017    4.7265 C   0  0  0  0  0  0  0  0  0  0  0  0
    8.2803    4.2837    6.2275 S   0  0  0  0  0  0  0  0  0  0  0  0
    9.6129    5.4244    6.7551 C   0  0  0  0  0  0  0  0  0  0  0  0
    9.2344    6.0198    8.0983 C   0  0  0  0  0  0  0  0  0  0  0  0
    8.1108    2.6187    4.1136 C   0  0  0  0  0  0  0  0  0  0  0  0
    8.4846    2.0047    2.9412 C   0  0  0  0  0  0  0  0  0  0  0  0
    6.9523    2.2498    4.6965 F   0  0  0  0  0  0  0  0  0  0  0  0
    9.2524    1.6094   -0.0088 C   0  0  0  0  0  0  0  0  0  0  0  0
    7.6488    2.2932   -0.1095 S   0  0  0  0  0  0  0  0  0  0  0  0
   12.4032    1.0087    1.9242 C   0  0  0  0  0  0  0  0  0  0  0  0
   13.4850    0.3415    1.4748 C   0  0  0  0  0  0  0  0  0  0  0  0
   13.3327   -0.2111   -0.1577 S   0  0  0  0  0  0  0  0  0  0  0  0
   -1.9157   -2.2406   11.5316 H   0  0  0  0  0  0  0  0  0  0  0  0
   -3.0033   -0.5721    9.8472 H   0  0  0  0  0  0  0  0  0  0  0  0
   -2.2333   -0.2051    7.4578 H   0  0  0  0  0  0  0  0  0  0  0  0
   -2.0956    2.1241    6.7713 H   0  0  0  0  0  0  0  0  0  0  0  0
   -2.2170    3.3527    4.7825 H   0  0  0  0  0  0  0  0  0  0  0  0
   -1.8465    4.3929    6.1883 H   0  0  0  0  0  0  0  0  0  0  0  0
   -2.7360    6.3657    4.9533 H   0  0  0  0  0  0  0  0  0  0  0  0
   -1.4309    5.6013    4.0339 H   0  0  0  0  0  0  0  0  0  0  0  0
   -3.1168    5.3392    3.5693 H   0  0  0  0  0  0  0  0  0  0  0  0
   -6.4994   -0.0711    7.0960 H   0  0  0  0  0  0  0  0  0  0  0  0
   -6.0588   -6.5298    7.8961 H   0  0  0  0  0  0  0  0  0  0  0  0
   -5.7383   -8.9548    8.1751 H   0  0  0  0  0  0  0  0  0  0  0  0
   -2.2349  -11.9230    9.9612 H   0  0  0  0  0  0  0  0  0  0  0  0
   -1.2794  -10.5227    9.4416 H   0  0  0  0  0  0  0  0  0  0  0  0
   -1.8758  -10.3664   11.8799 H   0  0  0  0  0  0  0  0  0  0  0  0
   -3.5923  -10.4455   11.4583 H   0  0  0  0  0  0  0  0  0  0  0  0
   -2.6232   -9.0513   10.9705 H   0  0  0  0  0  0  0  0  0  0  0  0
   -1.8245   -5.9770    8.2212 H   0  0  0  0  0  0  0  0  0  0  0  0
   -5.4199   -5.7957    5.5953 H   0  0  0  0  0  0  0  0  0  0  0  0
   -5.3639   -7.5542    1.6226 H   0  0  0  0  0  0  0  0  0  0  0  0
   -3.8991   -7.4589    2.6293 H   0  0  0  0  0  0  0  0  0  0  0  0
   -3.0839   -6.4848    0.6368 H   0  0  0  0  0  0  0  0  0  0  0  0
   -3.6906   -5.0489    1.4756 H   0  0  0  0  0  0  0  0  0  0  0  0
   -4.6013   -4.8715   -0.7335 H   0  0  0  0  0  0  0  0  0  0  0  0
   -6.8400   -6.3154   -2.3106 H   0  0  0  0  0  0  0  0  0  0  0  0
   -5.8439   -7.2795   -3.4328 H   0  0  0  0  0  0  0  0  0  0  0  0
   -5.3701   -5.6073   -3.0377 H   0  0  0  0  0  0  0  0  0  0  0  0
  -11.2893   -0.9944    0.4050 H   0  0  0  0  0  0  0  0  0  0  0  0
  -10.7055   -0.6331    2.0504 H   0  0  0  0  0  0  0  0  0  0  0  0
  -10.1197    1.3799    0.9451 H   0  0  0  0  0  0  0  0  0  0  0  0
   -8.6422    0.4386    0.7382 H   0  0  0  0  0  0  0  0  0  0  0  0
  -10.9058    0.8611   -1.2819 H   0  0  0  0  0  0  0  0  0  0  0  0
  -10.6616    2.7490   -3.0287 H   0  0  0  0  0  0  0  0  0  0  0  0
   -9.0503    3.0663   -3.7232 H   0  0  0  0  0  0  0  0  0  0  0  0
   -9.7047    1.4087   -3.7325 H   0  0  0  0  0  0  0  0  0  0  0  0
   -7.4274    0.6386   -2.9552 H   0  0  0  0  0  0  0  0  0  0  0  0
   -6.2419    3.3707   -5.9949 H   0  0  0  0  0  0  0  0  0  0  0  0
   -7.1853    5.5035   -5.2029 H   0  0  0  0  0  0  0  0  0  0  0  0
   -7.2996    6.4044   -0.3746 H   0  0  0  0  0  0  0  0  0  0  0  0
   -8.4114    7.6907   -0.8786 H   0  0  0  0  0  0  0  0  0  0  0  0
   -8.9669    4.6837   -1.0937 H   0  0  0  0  0  0  0  0  0  0  0  0
   -9.6984    5.7838    0.0737 H   0  0  0  0  0  0  0  0  0  0  0  0
  -10.0553    5.9640   -1.6503 H   0  0  0  0  0  0  0  0  0  0  0  0
   -5.4390    2.2712   -1.9378 H   0  0  0  0  0  0  0  0  0  0  0  0
   -3.4708   -3.4221   -4.2430 H   0  0  0  0  0  0  0  0  0  0  0  0
   -2.1756   -5.2994   -5.1557 H   0  0  0  0  0  0  0  0  0  0  0  0
    1.0274   -5.9815   -8.8980 H   0  0  0  0  0  0  0  0  0  0  0  0
   -0.0078   -4.6945   -9.5392 H   0  0  0  0  0  0  0  0  0  0  0  0
    0.7115   -3.2009   -7.6401 H   0  0  0  0  0  0  0  0  0  0  0  0
    1.7430   -4.4943   -7.0249 H   0  0  0  0  0  0  0  0  0  0  0  0
    2.0939   -3.7388   -8.5903 H   0  0  0  0  0  0  0  0  0  0  0  0
   -2.9379   -1.3167   -7.9332 H   0  0  0  0  0  0  0  0  0  0  0  0
   -1.2426   -0.3531   -6.0904 H   0  0  0  0  0  0  0  0  0  0  0  0
    1.0069    0.7440   -6.4816 H   0  0  0  0  0  0  0  0  0  0  0  0
    4.5639   -1.1772   -4.8053 H   0  0  0  0  0  0  0  0  0  0  0  0
    5.0555   -2.7894   -6.5500 H   0  0  0  0  0  0  0  0  0  0  0  0
    5.0266   -4.5387   -8.0839 H   0  0  0  0  0  0  0  0  0  0  0  0
    6.4700   -3.4910   -8.2187 H   0  0  0  0  0  0  0  0  0  0  0  0
    6.7964   -5.6510   -9.4563 H   0  0  0  0  0  0  0  0  0  0  0  0
    5.3722   -5.2928  -10.4399 H   0  0  0  0  0  0  0  0  0  0  0  0
    6.8047   -4.2707  -10.5629 H   0  0  0  0  0  0  0  0  0  0  0  0
    3.0467    1.5557   -7.7334 H   0  0  0  0  0  0  0  0  0  0  0  0
    0.7230    2.5442   -1.2085 H   0  0  0  0  0  0  0  0  0  0  0  0
    0.0385    3.8574    0.7480 H   0  0  0  0  0  0  0  0  0  0  0  0
    1.2687    8.0942    0.6831 H   0  0  0  0  0  0  0  0  0  0  0  0
    2.4741    8.0414    1.9959 H   0  0  0  0  0  0  0  0  0  0  0  0
    0.6634    8.4974    3.6595 H   0  0  0  0  0  0  0  0  0  0  0  0
    0.7419    9.7878    2.4540 H   0  0  0  0  0  0  0  0  0  0  0  0
   -0.5256    8.5574    2.3558 H   0  0  0  0  0  0  0  0  0  0  0  0
    3.9425    5.2887   -1.8813 H   0  0  0  0  0  0  0  0  0  0  0  0
    5.0938    3.1363   -1.1595 H   0  0  0  0  0  0  0  0  0  0  0  0
    8.6561    0.6242   -3.1732 H   0  0  0  0  0  0  0  0  0  0  0  0
    9.4880   -1.6013   -2.5529 H   0  0  0  0  0  0  0  0  0  0  0  0
   10.0510   -2.8161   -4.5760 H   0  0  0  0  0  0  0  0  0  0  0  0
   10.6513   -4.1612   -6.1176 H   0  0  0  0  0  0  0  0  0  0  0  0
   11.3999   -4.1833   -7.7196 H   0  0  0  0  0  0  0  0  0  0  0  0
    9.4864   -1.9900   -6.7512 H   0  0  0  0  0  0  0  0  0  0  0  0
   10.2556   -2.0712   -8.3356 H   0  0  0  0  0  0  0  0  0  0  0  0
    9.0689   -3.2949   -7.8711 H   0  0  0  0  0  0  0  0  0  0  0  0
   13.1152    0.6533   -2.8779 H   0  0  0  0  0  0  0  0  0  0  0  0
   11.3890    3.6499    2.4478 H   0  0  0  0  0  0  0  0  0  0  0  0
   10.7120    4.7216    4.5213 H   0  0  0  0  0  0  0  0  0  0  0  0
    9.7122    6.2028    5.9984 H   0  0  0  0  0  0  0  0  0  0  0  0
   10.5364    4.8500    6.8303 H   0  0  0  0  0  0  0  0  0  0  0  0
    8.2973    6.5663    8.0215 H   0  0  0  0  0  0  0  0  0  0  0  0
   10.0117    6.7035    8.4326 H   0  0  0  0  0  0  0  0  0  0  0  0
    9.1149    5.2352    8.8417 H   0  0  0  0  0  0  0  0  0  0  0  0
    7.8486    1.2402    2.5239 H   0  0  0  0  0  0  0  0  0  0  0  0
   12.3169    1.4046    2.9196 H   0  0  0  0  0  0  0  0  0  0  0  0
   14.3930    0.1262    2.0037 H   0  0  0  0  0  0  0  0  0  0  0  0
  1  2  2  0  0  0  0
  2  3  1  0  0  0  0
  3  4  2  0  0  0  0
  4  5  1  0  0  0  0
  5  6  2  0  0  0  0
  6  7  1  0  0  0  0
  7  8  2  0  0  0  0
  8  9  1  0  0  0  0
  9 10  1  0  0  0  0
 10 11  1  0  0  0  0
  8 12  1  0  0  0  0
 12 13  1  0  0  0  0
 12 14  2  0  0  0  0
  4 15  1  0  0  0  0
 15 16  2  0  0  0  0
 16 17  1  0  0  0  0
 17 18  1  0  0  0  0
 18 19  2  0  0  0  0
 19 20  1  0  0  0  0
 20 21  2  0  0  0  0
 21 22  1  0  0  0  0
 22 23  1  0  0  0  0
 23 24  1  0  0  0  0
 21 25  1  0  0  0  0
 25 26  2  0  0  0  0
 25 27  1  0  0  0  0
 17 28  2  0  0  0  0
 28 29  1  0  0  0  0
 16 30  1  0  0  0  0
 30 31  2  0  0  0  0
 31 32  1  0  0  0  0
 31 33  1  0  0  0  0
 33 34  1  0  0  0  0
 34 35  1  0  0  0  0
 35 36  2  0  0  0  0
 36 37  1  0  0  0  0
 37 38  1  0  0  0  0
 38 39  1  0  0  0  0
 39 40  1  0  0  0  0
 40 41  1  0  0  0  0
 41 42  1  0  0  0  0
 42 43  1  0  0  0  0
 41 44  1  0  0  0  0
 35 45  1  0  0  0  0
 45 46  1  0  0  0  0
 46 47  1  0  0  0  0
 47 48  2  0  0  0  0
 48 49  1  0  0  0  0
 49 50  1  0  0  0  0
 50 51  1  0  0  0  0
 51 52  1  0  0  0  0
 52 53  1  0  0  0  0
 53 54  1  0  0  0  0
 54 55  1  0  0  0  0
 53 56  1  0  0  0  0
 47 57  1  0  0  0  0
 57 58  2  0  0  0  0
 58 59  1  0  0  0  0
 59 60  2  0  0  0  0
 60 61  1  0  0  0  0
 61 62  2  0  0  0  0
 62 63  1  0  0  0  0
 63 64  2  0  0  0  0
 64 65  1  0  0  0  0
 65 66  1  0  0  0  0
 66 67  1  0  0  0  0
 64 68  1  0  0  0  0
 68 69  1  0  0  0  0
 68 70  2  0  0  0  0
 60 71  1  0  0  0  0
 71 72  2  0  0  0  0
 72 73  1  0  0  0  0
 73 74  1  0  0  0  0
 74 75  2  0  0  0  0
 75 76  1  0  0  0  0
 76 77  2  0  0  0  0
 77 78  1  0  0  0  0
 78 79  1  0  0  0  0
 79 80  1  0  0  0  0
 77 81  1  0  0  0  0
 81 82  2  0  0  0  0
 81 83  1  0  0  0  0
 73 84  2  0  0  0  0
 84 85  1  0  0  0  0
 72 86  1  0  0  0  0
 86 87  2  0  0  0  0
 87 88  1  0  0  0  0
 87 89  1  0  0  0  0
 89 90  2  0  0  0  0
 90 91  1  0  0  0  0
 91 92  2  0  0  0  0
 92 93  1  0  0  0  0
 93 94  2  0  0  0  0
 94 95  1  0  0  0  0
 95 96  2  0  0  0  0
 96 97  1  0  0  0  0
 97 98  1  0  0  0  0
 98 99  1  0  0  0  0
 96100  1  0  0  0  0
100101  1  0  0  0  0
100102  2  0  0  0  0
 92103  1  0  0  0  0
103104  2  0  0  0  0
104105  1  0  0  0  0
105106  1  0  0  0  0
106107  2  0  0  0  0
107108  1  0  0  0  0
108109  2  0  0  0  0
109110  1  0  0  0  0
110111  1  0  0  0  0
111112  1  0  0  0  0
109113  1  0  0  0  0
113114  2  0  0  0  0
113115  1  0  0  0  0
105116  2  0  0  0  0
116117  1  0  0  0  0
104118  1  0  0  0  0
118119  2  0  0  0  0
119120  1  0  0  0  0
119121  1  0  0  0  0
121122  2  0  0  0  0
122123  1  0  0  0  0
123124  2  0  0  0  0
124125  1  0  0  0  0
125126  2  0  0  0  0
126127  1  0  0  0  0
127128  2  0  0  0  0
128129  1  0  0  0  0
129130  1  0  0  0  0
130131  1  0  0  0  0
128132  1  0  0  0  0
132133  1  0  0  0  0
132134  2  0  0  0  0
124135  1  0  0  0  0
135136  2  0  0  0  0
136137  1  0  0  0  0
137138  1  0  0  0  0
138139  2  0  0  0  0
139140  1  0  0  0  0
140141  2  0  0  0  0
141142  1  0  0  0  0
142143  1  0  0  0  0
143144  1  0  0  0  0
141145  1  0  0  0  0
145146  2  0  0  0  0
145147  1  0  0  0  0
137148  2  0  0  0  0
148149  1  0  0  0  0
136150  1  0  0  0  0
150151  2  0  0  0  0
151152  1  0  0  0  0
 29  1  1  0  0  0  0
 37 33  2  0  0  0  0
 49 45  2  0  0  0  0
 85 57  1  0  0  0  0
117 89  1  0  0  0  0
149121  1  0  0  0  0
 28  3  1  0  0  0  0
 44 36  1  0  0  0  0
 56 48  1  0  0  0  0
 84 59  1  0  0  0  0
116 91  1  0  0  0  0
148123  1  0  0  0  0
 14  5  1  0  0  0  0
 32 15  1  0  0  0  0
 70 61  1  0  0  0  0
 88 71  1  0  0  0  0
102 93  1  0  0  0  0
120103  1  0  0  0  0
134125  1  0  0  0  0
152135  1  0  0  0  0
 26 18  1  0  0  0  0
 82 74  1  0  0  0  0
114106  1  0  0  0  0
146138  1  0  0  0  0
  1153  1  0  0  0  0
  2154  1  0  0  0  0
  6155  1  0  0  0  0
  7156  1  0  0  0  0
 10157  1  0  0  0  0
 10158  1  0  0  0  0
 11159  1  0  0  0  0
 11160  1  0  0  0  0
 11161  1  0  0  0  0
 14162  1  0  0  0  0
 19163  1  0  0  0  0
 20164  1  0  0  0  0
 23165  1  0  0  0  0
 23166  1  0  0  0  0
 24167  1  0  0  0  0
 24168  1  0  0  0  0
 24169  1  0  0  0  0
 26170  1  0  0  0  0
 30171  1  0  0  0  0
 39172  1  0  0  0  0
 39173  1  0  0  0  0
 40174  1  0  0  0  0
 40175  1  0  0  0  0
 41176  1  0  0  0  0
 43177  1  0  0  0  0
 43178  1  0  0  0  0
 43179  1  0  0  0  0
 51180  1  0  0  0  0
 51181  1  0  0  0  0
 52182  1  0  0  0  0
 52183  1  0  0  0  0
 53184  1  0  0  0  0
 55185  1  0  0  0  0
 55186  1  0  0  0  0
 55187  1  0  0  0  0
 58188  1  0  0  0  0
 62189  1  0  0  0  0
 63190  1  0  0  0  0
 66191  1  0  0  0  0
 66192  1  0  0  0  0
 67193  1  0  0  0  0
 67194  1  0  0  0  0
 67195  1  0  0  0  0
 70196  1  0  0  0  0
 75197  1  0  0  0  0
 76198  1  0  0  0  0
 79199  1  0  0  0  0
 79200  1  0  0  0  0
 80201  1  0  0  0  0
 80202  1  0  0  0  0
 80203  1  0  0  0  0
 82204  1  0  0  0  0
 86205  1  0  0  0  0
 90206  1  0  0  0  0
 94207  1  0  0  0  0
 95208  1  0  0  0  0
 98209  1  0  0  0  0
 98210  1  0  0  0  0
 99211  1  0  0  0  0
 99212  1  0  0  0  0
 99213  1  0  0  0  0
102214  1  0  0  0  0
107215  1  0  0  0  0
108216  1  0  0  0  0
111217  1  0  0  0  0
111218  1  0  0  0  0
112219  1  0  0  0  0
112220  1  0  0  0  0
112221  1  0  0  0  0
114222  1  0  0  0  0
118223  1  0  0  0  0
122224  1  0  0  0  0
126225  1  0  0  0  0
127226  1  0  0  0  0
130227  1  0  0  0  0
130228  1  0  0  0  0
131229  1  0  0  0  0
131230  1  0  0  0  0
131231  1  0  0  0  0
134232  1  0  0  0  0
139233  1  0  0  0  0
140234  1  0  0  0  0
143235  1  0  0  0  0
143236  1  0  0  0  0
144237  1  0  0  0  0
144238  1  0  0  0  0
144239  1  0  0  0  0
146240  1  0  0  0  0
150241  1  0  0  0  0
151242  1  0  0  0  0
M  END
