
  xtb     03052205573D
 energy: -405.153785556084 gnorm: 0.000490739954 xtb: 6.4.1 (unknown)
238259  0     0  0            999 V2000
    4.0702   -6.1001    8.7449 C   0  0  0  0  0  0  0  0  0  0  0  0
    4.2023   -4.7692    8.9136 C   0  0  0  0  0  0  0  0  0  0  0  0
    3.4664   -4.0134    7.9531 C   0  0  0  0  0  0  0  0  0  0  0  0
    3.3398   -2.6217    7.8543 C   0  0  0  0  0  0  0  0  0  0  0  0
    4.1263   -1.6879    8.6698 C   0  0  0  0  0  0  0  0  0  0  0  0
    5.5151   -1.8005    8.7255 C   0  0  0  0  0  0  0  0  0  0  0  0
    6.2704   -0.8489    9.3758 C   0  0  0  0  0  0  0  0  0  0  0  0
    5.6757    0.2379   10.0152 C   0  0  0  0  0  0  0  0  0  0  0  0
    6.7520    1.3808   10.8297 S   0  0  0  0  0  0  0  0  0  0  0  0
    5.9922    3.0197   10.5277 C   0  0  0  0  0  0  0  0  0  0  0  0
    5.8462    3.3198    9.0502 C   0  0  0  0  0  0  0  0  0  0  0  0
    4.2859    0.3064    9.9992 C   0  0  0  0  0  0  0  0  0  0  0  0
    3.6341    1.2934   10.6509 F   0  0  0  0  0  0  0  0  0  0  0  0
    3.5190   -0.6207    9.3223 C   0  0  0  0  0  0  0  0  0  0  0  0
    2.5022   -2.1406    6.8595 C   0  0  0  0  0  0  0  0  0  0  0  0
    1.8475   -2.9729    5.9190 C   0  0  0  0  0  0  0  0  0  0  0  0
    1.9667   -4.3668    6.0244 C   0  0  0  0  0  0  0  0  0  0  0  0
    1.2655   -5.2739    5.1065 C   0  0  0  0  0  0  0  0  0  0  0  0
    1.9523   -6.2719    4.4181 C   0  0  0  0  0  0  0  0  0  0  0  0
    1.2843   -7.1255    3.5667 C   0  0  0  0  0  0  0  0  0  0  0  0
   -0.0958   -7.0419    3.3953 C   0  0  0  0  0  0  0  0  0  0  0  0
   -0.8561   -8.2328    2.3297 S   0  0  0  0  0  0  0  0  0  0  0  0
   -2.1643   -7.2945    1.4563 C   0  0  0  0  0  0  0  0  0  0  0  0
   -1.6005   -6.1109    0.6960 C   0  0  0  0  0  0  0  0  0  0  0  0
   -0.7730   -6.0684    4.1228 C   0  0  0  0  0  0  0  0  0  0  0  0
   -0.1122   -5.1743    4.9401 C   0  0  0  0  0  0  0  0  0  0  0  0
   -2.1201   -5.9827    4.0611 F   0  0  0  0  0  0  0  0  0  0  0  0
    2.7713   -4.8504    7.0479 C   0  0  0  0  0  0  0  0  0  0  0  0
    3.0531   -6.5345    7.4122 S   0  0  0  0  0  0  0  0  0  0  0  0
    1.2063   -2.2199    4.8977 C   0  0  0  0  0  0  0  0  0  0  0  0
    1.3339   -0.8738    5.0633 C   0  0  0  0  0  0  0  0  0  0  0  0
    2.2218   -0.4584    6.5181 S   0  0  0  0  0  0  0  0  0  0  0  0
    1.0041    0.2432    4.2358 C   0  0  0  0  0  0  0  0  0  0  0  0
    1.3314    1.4514    4.7608 O   0  0  0  0  0  0  0  0  0  0  0  0
    1.2041    2.3666    3.7910 C   0  0  0  0  0  0  0  0  0  0  0  0
    0.8093    1.7896    2.6239 C   0  0  0  0  0  0  0  0  0  0  0  0
    0.6081    2.4435    1.3060 C   0  0  0  0  0  0  0  0  0  0  0  0
    0.6443    0.3942    2.9041 C   0  0  0  0  0  0  0  0  0  0  0  0
    0.2328   -0.5526    1.8979 C   0  0  0  0  0  0  0  0  0  0  0  0
   -0.6638   -1.5529    1.9913 C   0  0  0  0  0  0  0  0  0  0  0  0
   -1.4698   -1.9041    3.1165 C   0  0  0  0  0  0  0  0  0  0  0  0
   -2.4260   -2.8554    3.0204 C   0  0  0  0  0  0  0  0  0  0  0  0
   -3.3120   -3.2686    4.0518 C   0  0  0  0  0  0  0  0  0  0  0  0
   -3.1635   -2.8216    5.3184 O   0  0  0  0  0  0  0  0  0  0  0  0
   -4.1647   -3.3507    6.0460 C   0  0  0  0  0  0  0  0  0  0  0  0
   -4.9892   -4.1263    5.2879 C   0  0  0  0  0  0  0  0  0  0  0  0
   -6.1833   -4.8779    5.7584 C   0  0  0  0  0  0  0  0  0  0  0  0
   -4.4404   -4.0922    3.9690 C   0  0  0  0  0  0  0  0  0  0  0  0
   -4.8941   -4.6950    2.7550 C   0  0  0  0  0  0  0  0  0  0  0  0
   -6.1452   -5.0704    2.4126 C   0  0  0  0  0  0  0  0  0  0  0  0
   -6.4220   -5.3567    1.0407 C   0  0  0  0  0  0  0  0  0  0  0  0
   -7.6023   -5.1492    0.4193 C   0  0  0  0  0  0  0  0  0  0  0  0
   -7.6433   -4.9082   -0.9935 C   0  0  0  0  0  0  0  0  0  0  0  0
   -8.3486   -3.9043   -1.5920 C   0  0  0  0  0  0  0  0  0  0  0  0
   -7.7776   -3.4605   -2.8146 C   0  0  0  0  0  0  0  0  0  0  0  0
   -8.0346   -2.2276   -3.4406 C   0  0  0  0  0  0  0  0  0  0  0  0
   -9.2336   -1.4572   -3.0945 C   0  0  0  0  0  0  0  0  0  0  0  0
  -10.4797   -2.0788   -3.1381 C   0  0  0  0  0  0  0  0  0  0  0  0
  -11.6393   -1.3883   -2.8449 C   0  0  0  0  0  0  0  0  0  0  0  0
  -11.5940   -0.0483   -2.4764 C   0  0  0  0  0  0  0  0  0  0  0  0
  -12.9820    0.9658   -2.0949 S   0  0  0  0  0  0  0  0  0  0  0  0
  -14.3776   -0.2040   -1.9624 C   0  0  0  0  0  0  0  0  0  0  0  0
  -14.3133   -1.0399   -0.6979 C   0  0  0  0  0  0  0  0  0  0  0  0
  -10.3374    0.5588   -2.4259 C   0  0  0  0  0  0  0  0  0  0  0  0
  -10.2545    1.8537   -2.0608 F   0  0  0  0  0  0  0  0  0  0  0  0
   -9.1759   -0.1143   -2.7281 C   0  0  0  0  0  0  0  0  0  0  0  0
   -7.0416   -1.7684   -4.2958 C   0  0  0  0  0  0  0  0  0  0  0  0
   -5.9691   -2.5830   -4.7292 C   0  0  0  0  0  0  0  0  0  0  0  0
   -5.8188   -3.8938   -4.2407 C   0  0  0  0  0  0  0  0  0  0  0  0
   -4.7460   -4.7500   -4.7584 C   0  0  0  0  0  0  0  0  0  0  0  0
   -3.8483   -5.4250   -3.9340 C   0  0  0  0  0  0  0  0  0  0  0  0
   -2.8487   -6.2047   -4.4749 C   0  0  0  0  0  0  0  0  0  0  0  0
   -2.7098   -6.3611   -5.8530 C   0  0  0  0  0  0  0  0  0  0  0  0
   -1.4188   -7.4303   -6.4154 S   0  0  0  0  0  0  0  0  0  0  0  0
   -0.7897   -6.6294   -7.9373 C   0  0  0  0  0  0  0  0  0  0  0  0
   -0.3069   -5.2163   -7.6798 C   0  0  0  0  0  0  0  0  0  0  0  0
   -3.6301   -5.7036   -6.6643 C   0  0  0  0  0  0  0  0  0  0  0  0
   -4.6158   -4.8953   -6.1374 C   0  0  0  0  0  0  0  0  0  0  0  0
   -3.5918   -5.8360   -8.0089 F   0  0  0  0  0  0  0  0  0  0  0  0
   -6.6635   -4.2471   -3.1989 C   0  0  0  0  0  0  0  0  0  0  0  0
   -6.4015   -5.5460   -2.0612 S   0  0  0  0  0  0  0  0  0  0  0  0
   -4.9555   -1.8291   -5.3842 C   0  0  0  0  0  0  0  0  0  0  0  0
   -5.1951   -0.4912   -5.3802 C   0  0  0  0  0  0  0  0  0  0  0  0
   -6.7996   -0.1079   -4.7865 S   0  0  0  0  0  0  0  0  0  0  0  0
   -4.1643    0.5223   -5.3070 C   0  0  0  0  0  0  0  0  0  0  0  0
   -3.8889    1.1007   -4.1075 C   0  0  0  0  0  0  0  0  0  0  0  0
   -2.6469    1.7777   -4.0739 C   0  0  0  0  0  0  0  0  0  0  0  0
   -1.9885    2.2582   -2.9354 C   0  0  0  0  0  0  0  0  0  0  0  0
   -2.4781    2.0144   -1.5711 C   0  0  0  0  0  0  0  0  0  0  0  0
   -2.7763    0.7133   -1.1623 C   0  0  0  0  0  0  0  0  0  0  0  0
   -3.0847    0.4426    0.1519 C   0  0  0  0  0  0  0  0  0  0  0  0
   -3.1272    1.4536    1.1133 C   0  0  0  0  0  0  0  0  0  0  0  0
   -3.5099    0.9655    2.7628 S   0  0  0  0  0  0  0  0  0  0  0  0
   -2.6281    2.1938    3.8075 C   0  0  0  0  0  0  0  0  0  0  0  0
   -2.3626    1.5803    5.1676 C   0  0  0  0  0  0  0  0  0  0  0  0
   -2.8881    2.7547    0.6779 C   0  0  0  0  0  0  0  0  0  0  0  0
   -2.9721    3.7993    1.5308 F   0  0  0  0  0  0  0  0  0  0  0  0
   -2.5470    3.0359   -0.6317 C   0  0  0  0  0  0  0  0  0  0  0  0
   -0.7373    2.8128   -3.1420 C   0  0  0  0  0  0  0  0  0  0  0  0
   -0.1180    2.8868   -4.4137 C   0  0  0  0  0  0  0  0  0  0  0  0
   -0.7618    2.3519   -5.5470 C   0  0  0  0  0  0  0  0  0  0  0  0
   -0.0836    2.3589   -6.8482 C   0  0  0  0  0  0  0  0  0  0  0  0
    1.2377    1.9301   -6.9659 C   0  0  0  0  0  0  0  0  0  0  0  0
    1.9277    2.0536   -8.1545 C   0  0  0  0  0  0  0  0  0  0  0  0
    1.3169    2.6082   -9.2750 C   0  0  0  0  0  0  0  0  0  0  0  0
    2.1422    2.8842  -10.8041 S   0  0  0  0  0  0  0  0  0  0  0  0
    3.8924    3.0521  -10.2739 C   0  0  0  0  0  0  0  0  0  0  0  0
    4.6596    3.8039  -11.3441 C   0  0  0  0  0  0  0  0  0  0  0  0
   -0.0312    2.9548   -9.1678 C   0  0  0  0  0  0  0  0  0  0  0  0
   -0.7282    2.8422   -7.9847 C   0  0  0  0  0  0  0  0  0  0  0  0
   -0.6691    3.4505  -10.2453 F   0  0  0  0  0  0  0  0  0  0  0  0
   -2.0184    1.7981   -5.3435 C   0  0  0  0  0  0  0  0  0  0  0  0
   -2.9536    0.8868   -6.5137 S   0  0  0  0  0  0  0  0  0  0  0  0
    1.1965    3.4146   -4.3176 C   0  0  0  0  0  0  0  0  0  0  0  0
    1.5969    3.6498   -3.0344 C   0  0  0  0  0  0  0  0  0  0  0  0
    0.3254    3.3452   -1.8733 S   0  0  0  0  0  0  0  0  0  0  0  0
    2.9155    3.9411   -2.5687 C   0  0  0  0  0  0  0  0  0  0  0  0
    4.0264    4.2184   -3.3080 C   0  0  0  0  0  0  0  0  0  0  0  0
    5.2203    4.2597   -2.5427 C   0  0  0  0  0  0  0  0  0  0  0  0
    6.5306    4.4837   -2.9949 C   0  0  0  0  0  0  0  0  0  0  0  0
    6.8118    4.5978   -4.4314 C   0  0  0  0  0  0  0  0  0  0  0  0
    7.5694    5.6402   -4.9588 C   0  0  0  0  0  0  0  0  0  0  0  0
    7.8075    5.7176   -6.3164 C   0  0  0  0  0  0  0  0  0  0  0  0
    7.2983    4.7661   -7.1946 C   0  0  0  0  0  0  0  0  0  0  0  0
    7.6073    4.9521   -8.9312 S   0  0  0  0  0  0  0  0  0  0  0  0
    8.2590    3.2983   -9.3791 C   0  0  0  0  0  0  0  0  0  0  0  0
    9.5229    2.9670   -8.6114 C   0  0  0  0  0  0  0  0  0  0  0  0
    6.5307    3.7390   -6.6570 C   0  0  0  0  0  0  0  0  0  0  0  0
    5.9725    2.8026   -7.4598 F   0  0  0  0  0  0  0  0  0  0  0  0
    6.3004    3.6372   -5.3018 C   0  0  0  0  0  0  0  0  0  0  0  0
    7.5223    4.5272   -2.0249 C   0  0  0  0  0  0  0  0  0  0  0  0
    7.2734    4.2936   -0.6489 C   0  0  0  0  0  0  0  0  0  0  0  0
    5.9730    4.0161   -0.2049 C   0  0  0  0  0  0  0  0  0  0  0  0
    5.6672    3.6876    1.1963 C   0  0  0  0  0  0  0  0  0  0  0  0
    6.0269    4.5298    2.2454 C   0  0  0  0  0  0  0  0  0  0  0  0
    5.7230    4.1944    3.5494 C   0  0  0  0  0  0  0  0  0  0  0  0
    5.0557    3.0119    3.8593 C   0  0  0  0  0  0  0  0  0  0  0  0
    4.6652    2.6892    5.5592 S   0  0  0  0  0  0  0  0  0  0  0  0
    5.2349    0.9665    5.7889 C   0  0  0  0  0  0  0  0  0  0  0  0
    6.7406    0.8519    5.6695 C   0  0  0  0  0  0  0  0  0  0  0  0
    4.6813    2.1921    2.7994 C   0  0  0  0  0  0  0  0  0  0  0  0
    4.9839    2.5114    1.4916 C   0  0  0  0  0  0  0  0  0  0  0  0
    4.0079    1.0426    3.0197 F   0  0  0  0  0  0  0  0  0  0  0  0
    4.9754    4.0249   -1.1682 C   0  0  0  0  0  0  0  0  0  0  0  0
    3.2824    3.7551   -0.8657 S   0  0  0  0  0  0  0  0  0  0  0  0
    8.4801    4.3128    0.1128 C   0  0  0  0  0  0  0  0  0  0  0  0
    9.5722    4.5573   -0.6380 C   0  0  0  0  0  0  0  0  0  0  0  0
    9.2243    4.7743   -2.3199 S   0  0  0  0  0  0  0  0  0  0  0  0
    4.5104   -6.8855    9.3277 H   0  0  0  0  0  0  0  0  0  0  0  0
    4.7811   -4.3183    9.6994 H   0  0  0  0  0  0  0  0  0  0  0  0
    6.0028   -2.6199    8.2194 H   0  0  0  0  0  0  0  0  0  0  0  0
    7.3467   -0.9238    9.3947 H   0  0  0  0  0  0  0  0  0  0  0  0
    6.6951    3.7056   11.0013 H   0  0  0  0  0  0  0  0  0  0  0  0
    5.0402    3.0717   11.0509 H   0  0  0  0  0  0  0  0  0  0  0  0
    5.1347    2.6443    8.5804 H   0  0  0  0  0  0  0  0  0  0  0  0
    5.4828    4.3363    8.9162 H   0  0  0  0  0  0  0  0  0  0  0  0
    6.8042    3.2233    8.5436 H   0  0  0  0  0  0  0  0  0  0  0  0
    2.4459   -0.5113    9.3331 H   0  0  0  0  0  0  0  0  0  0  0  0
    3.0214   -6.3610    4.5333 H   0  0  0  0  0  0  0  0  0  0  0  0
    1.8222   -7.8844    3.0202 H   0  0  0  0  0  0  0  0  0  0  0  0
   -2.9277   -6.9977    2.1722 H   0  0  0  0  0  0  0  0  0  0  0  0
   -2.5860   -8.0332    0.7744 H   0  0  0  0  0  0  0  0  0  0  0  0
   -1.1749   -5.3781    1.3801 H   0  0  0  0  0  0  0  0  0  0  0  0
   -2.3906   -5.6329    0.1185 H   0  0  0  0  0  0  0  0  0  0  0  0
   -0.8201   -6.4352    0.0106 H   0  0  0  0  0  0  0  0  0  0  0  0
   -0.6850   -4.4321    5.4744 H   0  0  0  0  0  0  0  0  0  0  0  0
    0.7160   -2.6732    4.0573 H   0  0  0  0  0  0  0  0  0  0  0  0
    1.4268    3.3849    4.0430 H   0  0  0  0  0  0  0  0  0  0  0  0
    1.4376    2.2015    0.6421 H   0  0  0  0  0  0  0  0  0  0  0  0
   -0.3076    2.0942    0.8337 H   0  0  0  0  0  0  0  0  0  0  0  0
    0.5664    3.5239    1.4149 H   0  0  0  0  0  0  0  0  0  0  0  0
    0.6637   -0.3569    0.9231 H   0  0  0  0  0  0  0  0  0  0  0  0
   -0.8482   -2.1348    1.0951 H   0  0  0  0  0  0  0  0  0  0  0  0
   -1.3352   -1.3666    4.0421 H   0  0  0  0  0  0  0  0  0  0  0  0
   -2.5690   -3.3510    2.0699 H   0  0  0  0  0  0  0  0  0  0  0  0
   -4.1857   -3.1110    7.0913 H   0  0  0  0  0  0  0  0  0  0  0  0
   -6.1849   -4.9359    6.8441 H   0  0  0  0  0  0  0  0  0  0  0  0
   -6.1805   -5.8854    5.3472 H   0  0  0  0  0  0  0  0  0  0  0  0
   -7.0991   -4.3796    5.4406 H   0  0  0  0  0  0  0  0  0  0  0  0
   -4.1395   -4.7554    1.9806 H   0  0  0  0  0  0  0  0  0  0  0  0
   -6.9729   -4.9882    3.0992 H   0  0  0  0  0  0  0  0  0  0  0  0
   -5.5569   -5.5610    0.4203 H   0  0  0  0  0  0  0  0  0  0  0  0
   -8.4897   -4.8928    0.9817 H   0  0  0  0  0  0  0  0  0  0  0  0
   -9.1475   -3.3784   -1.1001 H   0  0  0  0  0  0  0  0  0  0  0  0
  -10.5427   -3.1172   -3.4280 H   0  0  0  0  0  0  0  0  0  0  0  0
  -12.5824   -1.9052   -2.9152 H   0  0  0  0  0  0  0  0  0  0  0  0
  -15.2528    0.4457   -1.9515 H   0  0  0  0  0  0  0  0  0  0  0  0
  -14.4101   -0.8121   -2.8654 H   0  0  0  0  0  0  0  0  0  0  0  0
  -14.3118   -0.3944    0.1772 H   0  0  0  0  0  0  0  0  0  0  0  0
  -15.1789   -1.6975   -0.6442 H   0  0  0  0  0  0  0  0  0  0  0  0
  -13.4117   -1.6482   -0.6752 H   0  0  0  0  0  0  0  0  0  0  0  0
   -8.2369    0.4084   -2.6478 H   0  0  0  0  0  0  0  0  0  0  0  0
   -3.9129   -5.3130   -2.8637 H   0  0  0  0  0  0  0  0  0  0  0  0
   -2.1468   -6.7135   -3.8327 H   0  0  0  0  0  0  0  0  0  0  0  0
   -1.5610   -6.6642   -8.7033 H   0  0  0  0  0  0  0  0  0  0  0  0
    0.0346   -7.2781   -8.2343 H   0  0  0  0  0  0  0  0  0  0  0  0
    0.1344   -4.8094   -8.5873 H   0  0  0  0  0  0  0  0  0  0  0  0
    0.4420   -5.2059   -6.8903 H   0  0  0  0  0  0  0  0  0  0  0  0
   -1.1316   -4.5714   -7.3824 H   0  0  0  0  0  0  0  0  0  0  0  0
   -5.3013   -4.4054   -6.8121 H   0  0  0  0  0  0  0  0  0  0  0  0
   -4.0173   -2.2529   -5.6962 H   0  0  0  0  0  0  0  0  0  0  0  0
   -4.5240    0.9926   -3.2467 H   0  0  0  0  0  0  0  0  0  0  0  0
   -2.7209   -0.0944   -1.8766 H   0  0  0  0  0  0  0  0  0  0  0  0
   -3.2845   -0.5679    0.4727 H   0  0  0  0  0  0  0  0  0  0  0  0
   -3.2500    3.0839    3.8914 H   0  0  0  0  0  0  0  0  0  0  0  0
   -1.6961    2.4376    3.3007 H   0  0  0  0  0  0  0  0  0  0  0  0
   -1.7546    0.6839    5.0701 H   0  0  0  0  0  0  0  0  0  0  0  0
   -3.2960    1.3113    5.6571 H   0  0  0  0  0  0  0  0  0  0  0  0
   -1.8309    2.2941    5.7934 H   0  0  0  0  0  0  0  0  0  0  0  0
   -2.3543    4.0611   -0.9067 H   0  0  0  0  0  0  0  0  0  0  0  0
    1.7270    1.4764   -6.1172 H   0  0  0  0  0  0  0  0  0  0  0  0
    2.9515    1.7195   -8.2081 H   0  0  0  0  0  0  0  0  0  0  0  0
    3.8948    3.6034   -9.3347 H   0  0  0  0  0  0  0  0  0  0  0  0
    4.3079    2.0560  -10.1212 H   0  0  0  0  0  0  0  0  0  0  0  0
    4.6725    3.2413  -12.2746 H   0  0  0  0  0  0  0  0  0  0  0  0
    5.6835    3.9681  -11.0159 H   0  0  0  0  0  0  0  0  0  0  0  0
    4.1986    4.7707  -11.5315 H   0  0  0  0  0  0  0  0  0  0  0  0
   -1.7560    3.1671   -7.9477 H   0  0  0  0  0  0  0  0  0  0  0  0
    1.8315    3.5822   -5.1672 H   0  0  0  0  0  0  0  0  0  0  0  0
    3.9940    4.4018   -4.3659 H   0  0  0  0  0  0  0  0  0  0  0  0
    7.9640    6.4002   -4.3027 H   0  0  0  0  0  0  0  0  0  0  0  0
    8.3940    6.5269   -6.7221 H   0  0  0  0  0  0  0  0  0  0  0  0
    7.4789    2.5571   -9.2184 H   0  0  0  0  0  0  0  0  0  0  0  0
    8.4575    3.3804  -10.4476 H   0  0  0  0  0  0  0  0  0  0  0  0
   10.2783    3.7329   -8.7728 H   0  0  0  0  0  0  0  0  0  0  0  0
    9.9173    2.0108   -8.9494 H   0  0  0  0  0  0  0  0  0  0  0  0
    9.3220    2.8999   -7.5433 H   0  0  0  0  0  0  0  0  0  0  0  0
    5.7255    2.8025   -4.9313 H   0  0  0  0  0  0  0  0  0  0  0  0
    6.5351    5.4585    2.0344 H   0  0  0  0  0  0  0  0  0  0  0  0
    6.0009    4.8498    4.3601 H   0  0  0  0  0  0  0  0  0  0  0  0
    4.7188    0.3270    5.0773 H   0  0  0  0  0  0  0  0  0  0  0  0
    4.9005    0.7102    6.7941 H   0  0  0  0  0  0  0  0  0  0  0  0
    7.0452   -0.1730    5.8717 H   0  0  0  0  0  0  0  0  0  0  0  0
    7.0719    1.1229    4.6681 H   0  0  0  0  0  0  0  0  0  0  0  0
    7.2305    1.5076    6.3858 H   0  0  0  0  0  0  0  0  0  0  0  0
    4.6862    1.8293    0.7104 H   0  0  0  0  0  0  0  0  0  0  0  0
    8.5094    4.1387    1.1730 H   0  0  0  0  0  0  0  0  0  0  0  0
   10.5926    4.6287   -0.3156 H   0  0  0  0  0  0  0  0  0  0  0  0
  1  2  2  0  0  0  0
  2  3  1  0  0  0  0
  3  4  2  0  0  0  0
  4  5  1  0  0  0  0
  5  6  2  0  0  0  0
  6  7  1  0  0  0  0
  7  8  2  0  0  0  0
  8  9  1  0  0  0  0
  9 10  1  0  0  0  0
 10 11  1  0  0  0  0
  8 12  1  0  0  0  0
 12 13  1  0  0  0  0
 12 14  2  0  0  0  0
  4 15  1  0  0  0  0
 15 16  2  0  0  0  0
 16 17  1  0  0  0  0
 17 18  1  0  0  0  0
 18 19  2  0  0  0  0
 19 20  1  0  0  0  0
 20 21  2  0  0  0  0
 21 22  1  0  0  0  0
 22 23  1  0  0  0  0
 23 24  1  0  0  0  0
 21 25  1  0  0  0  0
 25 26  2  0  0  0  0
 25 27  1  0  0  0  0
 17 28  2  0  0  0  0
 28 29  1  0  0  0  0
 16 30  1  0  0  0  0
 30 31  2  0  0  0  0
 31 32  1  0  0  0  0
 31 33  1  0  0  0  0
 33 34  1  0  0  0  0
 34 35  1  0  0  0  0
 35 36  2  0  0  0  0
 36 37  1  0  0  0  0
 36 38  1  0  0  0  0
 38 39  1  0  0  0  0
 39 40  2  0  0  0  0
 40 41  1  0  0  0  0
 41 42  2  0  0  0  0
 42 43  1  0  0  0  0
 43 44  1  0  0  0  0
 44 45  1  0  0  0  0
 45 46  2  0  0  0  0
 46 47  1  0  0  0  0
 46 48  1  0  0  0  0
 48 49  1  0  0  0  0
 49 50  2  0  0  0  0
 50 51  1  0  0  0  0
 51 52  2  0  0  0  0
 52 53  1  0  0  0  0
 53 54  2  0  0  0  0
 54 55  1  0  0  0  0
 55 56  2  0  0  0  0
 56 57  1  0  0  0  0
 57 58  2  0  0  0  0
 58 59  1  0  0  0  0
 59 60  2  0  0  0  0
 60 61  1  0  0  0  0
 61 62  1  0  0  0  0
 62 63  1  0  0  0  0
 60 64  1  0  0  0  0
 64 65  1  0  0  0  0
 64 66  2  0  0  0  0
 56 67  1  0  0  0  0
 67 68  2  0  0  0  0
 68 69  1  0  0  0  0
 69 70  1  0  0  0  0
 70 71  2  0  0  0  0
 71 72  1  0  0  0  0
 72 73  2  0  0  0  0
 73 74  1  0  0  0  0
 74 75  1  0  0  0  0
 75 76  1  0  0  0  0
 73 77  1  0  0  0  0
 77 78  2  0  0  0  0
 77 79  1  0  0  0  0
 69 80  2  0  0  0  0
 80 81  1  0  0  0  0
 68 82  1  0  0  0  0
 82 83  2  0  0  0  0
 83 84  1  0  0  0  0
 83 85  1  0  0  0  0
 85 86  2  0  0  0  0
 86 87  1  0  0  0  0
 87 88  2  0  0  0  0
 88 89  1  0  0  0  0
 89 90  2  0  0  0  0
 90 91  1  0  0  0  0
 91 92  2  0  0  0  0
 92 93  1  0  0  0  0
 93 94  1  0  0  0  0
 94 95  1  0  0  0  0
 92 96  1  0  0  0  0
 96 97  1  0  0  0  0
 96 98  2  0  0  0  0
 88 99  1  0  0  0  0
 99100  2  0  0  0  0
100101  1  0  0  0  0
101102  1  0  0  0  0
102103  2  0  0  0  0
103104  1  0  0  0  0
104105  2  0  0  0  0
105106  1  0  0  0  0
106107  1  0  0  0  0
107108  1  0  0  0  0
105109  1  0  0  0  0
109110  2  0  0  0  0
109111  1  0  0  0  0
101112  2  0  0  0  0
112113  1  0  0  0  0
100114  1  0  0  0  0
114115  2  0  0  0  0
115116  1  0  0  0  0
115117  1  0  0  0  0
117118  2  0  0  0  0
118119  1  0  0  0  0
119120  2  0  0  0  0
120121  1  0  0  0  0
121122  2  0  0  0  0
122123  1  0  0  0  0
123124  2  0  0  0  0
124125  1  0  0  0  0
125126  1  0  0  0  0
126127  1  0  0  0  0
124128  1  0  0  0  0
128129  1  0  0  0  0
128130  2  0  0  0  0
120131  1  0  0  0  0
131132  2  0  0  0  0
132133  1  0  0  0  0
133134  1  0  0  0  0
134135  2  0  0  0  0
135136  1  0  0  0  0
136137  2  0  0  0  0
137138  1  0  0  0  0
138139  1  0  0  0  0
139140  1  0  0  0  0
137141  1  0  0  0  0
141142  2  0  0  0  0
141143  1  0  0  0  0
133144  2  0  0  0  0
144145  1  0  0  0  0
132146  1  0  0  0  0
146147  2  0  0  0  0
147148  1  0  0  0  0
 29  1  1  0  0  0  0
 38 33  2  0  0  0  0
 48 43  2  0  0  0  0
 81 53  1  0  0  0  0
113 85  1  0  0  0  0
145117  1  0  0  0  0
 28  3  1  0  0  0  0
 80 55  1  0  0  0  0
112 87  1  0  0  0  0
144119  1  0  0  0  0
 14  5  1  0  0  0  0
 32 15  1  0  0  0  0
 66 57  1  0  0  0  0
 84 67  1  0  0  0  0
 98 89  1  0  0  0  0
116 99  1  0  0  0  0
130121  1  0  0  0  0
148131  1  0  0  0  0
 26 18  1  0  0  0  0
 78 70  1  0  0  0  0
110102  1  0  0  0  0
142134  1  0  0  0  0
  1149  1  0  0  0  0
  2150  1  0  0  0  0
  6151  1  0  0  0  0
  7152  1  0  0  0  0
 10153  1  0  0  0  0
 10154  1  0  0  0  0
 11155  1  0  0  0  0
 11156  1  0  0  0  0
 11157  1  0  0  0  0
 14158  1  0  0  0  0
 19159  1  0  0  0  0
 20160  1  0  0  0  0
 23161  1  0  0  0  0
 23162  1  0  0  0  0
 24163  1  0  0  0  0
 24164  1  0  0  0  0
 24165  1  0  0  0  0
 26166  1  0  0  0  0
 30167  1  0  0  0  0
 35168  1  0  0  0  0
 37169  1  0  0  0  0
 37170  1  0  0  0  0
 37171  1  0  0  0  0
 39172  1  0  0  0  0
 40173  1  0  0  0  0
 41174  1  0  0  0  0
 42175  1  0  0  0  0
 45176  1  0  0  0  0
 47177  1  0  0  0  0
 47178  1  0  0  0  0
 47179  1  0  0  0  0
 49180  1  0  0  0  0
 50181  1  0  0  0  0
 51182  1  0  0  0  0
 52183  1  0  0  0  0
 54184  1  0  0  0  0
 58185  1  0  0  0  0
 59186  1  0  0  0  0
 62187  1  0  0  0  0
 62188  1  0  0  0  0
 63189  1  0  0  0  0
 63190  1  0  0  0  0
 63191  1  0  0  0  0
 66192  1  0  0  0  0
 71193  1  0  0  0  0
 72194  1  0  0  0  0
 75195  1  0  0  0  0
 75196  1  0  0  0  0
 76197  1  0  0  0  0
 76198  1  0  0  0  0
 76199  1  0  0  0  0
 78200  1  0  0  0  0
 82201  1  0  0  0  0
 86202  1  0  0  0  0
 90203  1  0  0  0  0
 91204  1  0  0  0  0
 94205  1  0  0  0  0
 94206  1  0  0  0  0
 95207  1  0  0  0  0
 95208  1  0  0  0  0
 95209  1  0  0  0  0
 98210  1  0  0  0  0
103211  1  0  0  0  0
104212  1  0  0  0  0
107213  1  0  0  0  0
107214  1  0  0  0  0
108215  1  0  0  0  0
108216  1  0  0  0  0
108217  1  0  0  0  0
110218  1  0  0  0  0
114219  1  0  0  0  0
118220  1  0  0  0  0
122221  1  0  0  0  0
123222  1  0  0  0  0
126223  1  0  0  0  0
126224  1  0  0  0  0
127225  1  0  0  0  0
127226  1  0  0  0  0
127227  1  0  0  0  0
130228  1  0  0  0  0
135229  1  0  0  0  0
136230  1  0  0  0  0
139231  1  0  0  0  0
139232  1  0  0  0  0
140233  1  0  0  0  0
140234  1  0  0  0  0
140235  1  0  0  0  0
142236  1  0  0  0  0
146237  1  0  0  0  0
147238  1  0  0  0  0
M  END
