270

C         -5.31960       -4.49920        7.56910
C         -4.28930       -4.22340        6.74460
C         -3.02230       -4.23290        7.40460
C         -1.74380       -4.00980        6.85190
C         -1.63200       -3.87940        5.39480
C         -0.92470       -2.86590        4.74920
C         -1.02020       -2.70770        3.38310
C         -1.81500       -3.53950        2.58640
S         -1.93890       -3.07810        0.88880
C         -3.09960       -4.22610        0.06310
C         -2.48320       -5.56090       -0.30570
C         -2.44060       -4.59730        3.23590
F         -3.19830       -5.50760        2.57770
C         -2.34900       -4.76840        4.60010
C         -0.68700       -3.92970        7.75080
C         -0.85710       -4.15420        9.14040
C         -2.11090       -4.48440        9.67340
C         -2.27220       -4.81240       11.09430
C         -3.22900       -4.17720       11.87910
C         -3.37850       -4.49080       13.21600
C         -2.58510       -5.46420       13.81240
S         -2.65820       -5.94600       15.50530
C         -4.26590       -5.30170       16.08210
C         -5.43740       -6.03800       15.46090
C         -1.62850       -6.09180       13.01240
C         -1.46180       -5.78190       11.68250
F         -0.83800       -7.03780       13.56000
C         -3.17800       -4.47920        8.78870
S         -4.84370       -4.77930        9.20560
C          0.33930       -3.95040        9.87100
C          1.40950       -3.61960        9.09990
S          0.98150       -3.54030        7.39510
C          2.73340       -3.29710        9.55990
O          3.41790       -2.34710        8.87870
C          4.56340       -2.12270        9.54480
C          4.65680       -2.90800       10.65210
C          5.77980       -2.97320       11.62540
C          3.46280       -3.69820       10.67630
C          3.19910       -4.76260       11.61780
C          2.37750       -5.77280       11.29430
C          1.99530       -6.95900       12.00610
C          1.46030       -8.01570       11.35180
C          1.47140       -8.01130        9.90800
C          2.52090       -7.54460        9.17720
C          2.20990       -7.24600        7.83030
C          3.02250       -6.54600        6.93010
C          4.38340       -6.14090        7.29960
C          4.79350       -4.81700        7.17950
C          6.06490       -4.42440        7.55160
C          6.97490       -5.34500        8.05640
S          8.62540       -4.99550        8.56350
C          8.95530       -3.31810        7.91860
C          8.54400       -2.22850        8.89110
C          6.54840       -6.66940        8.17490
F          7.40490       -7.59080        8.66200
C          5.28630       -7.07410        7.80660
C          2.43530       -6.19180        5.72840
C          1.12290       -6.57440        5.35440
C          0.30960       -7.27510        6.26750
C         -1.06340       -7.66640        5.92870
C         -1.34920       -8.29990        4.71900
C         -2.63910       -8.67370        4.40590
C         -3.69460       -8.44200        5.28510
S         -5.29890       -9.04290        4.83200
C         -6.40390       -7.62850        5.19620
C         -6.14970       -6.46870        4.25480
C         -3.39240       -7.83430        6.49970
C         -2.10900       -7.43850        6.81930
F         -4.35890       -7.60770        7.41550
C          0.86460       -7.55000        7.51260
S          0.04950       -8.24760        8.90020
C          0.78170       -6.05550        4.07300
C          1.75980       -5.29100        3.51780
S          3.19710       -5.21330        4.51260
C          1.74650       -4.45990        2.35020
C          2.34880       -3.24170        2.27970
C          2.12100       -2.56040        1.05950
C          2.52080       -1.25860        0.71960
C          3.23350       -0.40890        1.68130
C          2.74730       -0.23760        2.97480
C          3.41500        0.54850        3.89320
C          4.59330        1.19980        3.54740
S          5.56380        2.19290        4.63400
C          4.42170        2.60120        5.99970
C          3.31150        3.53650        5.55990
C          5.06560        1.02570        2.24550
F          6.21060        1.63510        1.87900
C          4.40920        0.24500        1.32050
C          2.17330       -0.81440       -0.54590
C          1.42910       -1.60130       -1.45900
C          1.01110       -2.89570       -1.10720
C          0.19370       -3.69240       -2.02810
C          0.55800       -4.98690       -2.38400
C         -0.21590       -5.73330       -3.25340
C         -1.39610       -5.21840       -3.77860
S         -2.48560       -6.05700       -4.87770
C         -1.95050       -7.80010       -4.79310
C         -2.29140       -8.44420       -3.46260
C         -1.74610       -3.91660       -3.41290
C         -0.97640       -3.15590       -2.56370
F         -2.88890       -3.38450       -3.89580
C          1.37570       -3.34940        0.14980
S          0.92400       -4.87920        0.86710
C          1.18220       -0.91010       -2.67080
C          1.66910        0.36450       -2.68210
S          2.50460        0.76790       -1.19690
C          1.51530        1.33490       -3.71830
C          0.77850        1.20740       -4.85980
C          0.76180        2.37610       -5.66000
C          0.08690        2.57160       -6.87820
C         -0.60550        1.46480       -7.54650
C         -1.90830        1.59700       -8.01630
C         -2.55050        0.55040       -8.64950
C         -1.90790       -0.66640       -8.84880
S         -2.60580       -2.08270       -9.62540
C         -4.10130       -1.44630      -10.45670
C         -3.76970       -0.56560      -11.64640
C         -0.60130       -0.78540       -8.36980
F          0.05620       -1.95110       -8.54000
C          0.04730        0.24590       -7.73150
C          0.13140        3.85100       -7.41080
C          0.87430        4.90180       -6.81870
C          1.61200        4.68670       -5.64180
C          2.45370        5.75410       -5.08940
C          3.34380        6.44250       -5.91570
C          4.12330        7.46160       -5.41700
C          4.04580        7.84750       -4.07830
S          5.05040        9.21170       -3.58730
C          5.40800        8.90720       -1.81290
C          6.66050        9.67090       -1.43100
C          3.15240        7.15460       -3.26650
C          2.37950        6.11720       -3.75000
F          2.99350        7.48720       -1.96610
C          1.50370        3.43020       -5.06830
S          2.24920        2.91850       -3.57800
C          0.73780        6.11450       -7.53450
C         -0.04060        6.00980       -8.65030
S         -0.65650        4.38650       -8.87410
C         -0.34540        7.07020       -9.55730
C          0.12980        8.34610       -9.47940
C         -0.32330        9.18670      -10.52430
C         -0.00970       10.53990      -10.72010
C          0.80310       11.25180       -9.72400
C          1.99520       11.88320      -10.06260
C          2.78180       12.47450       -9.09240
C          2.40050       12.46120       -7.75540
S          3.34730       13.18240       -6.44900
C          5.06250       12.78970       -6.94550
C          5.30640       11.29440       -6.99480
C          1.17920       11.86820       -7.43810
F          0.75600       11.86070       -6.15980
C          0.39210       11.26270       -8.39270
C         -0.51490       11.13260      -11.86500
C         -1.36340       10.45250      -12.77320
C         -1.71720        9.11290      -12.54930
C         -2.65710        8.40640      -13.42880
C         -3.89310        8.96640      -13.73930
C         -4.80090        8.30040      -14.53990
C         -4.50480        7.04520      -15.05860
S         -5.55360        6.09390      -16.10730
C         -7.18490        6.90260      -15.96700
C         -7.82600        6.67740      -14.61070
C         -3.25830        6.49950      -14.74530
C         -2.34620        7.15110      -13.94660
F         -2.93200        5.29060      -15.24380
C         -1.15680        8.49830      -11.43800
S         -1.39310        6.84060      -10.94190
C         -1.73480       11.29330      -13.86530
C         -1.21800       12.53500      -13.77370
S         -0.24370       12.78190      -12.36380
H         -6.36230       -4.54940        7.32260
H         -4.41860       -3.98180        5.70560
H         -0.33310       -2.17240        5.32640
H         -0.50250       -1.89730        2.89200
H         -3.98050       -4.33620        0.69120
H         -3.37610       -3.67320       -0.83530
H         -2.27240       -6.15980        0.57480
H         -3.17880       -6.11040       -0.93660
H         -1.55480       -5.41330       -0.85010
H         -2.84900       -5.61690        5.03830
H         -3.85110       -3.40880       11.44650
H         -4.11730       -3.95970       13.79360
H         -4.23190       -5.46480       17.15940
H         -4.30060       -4.22880       15.89650
H         -5.44210       -5.92460       14.37880
H         -6.37250       -5.64580       15.85620
H         -5.37880       -7.09860       15.69350
H         -0.72160       -6.31450       11.10740
H          0.38590       -4.00340       10.94320
H          5.21560       -1.37000        9.14630
H          6.32130       -3.91260       11.51430
H          6.47100       -2.15040       11.46230
H          5.40500       -2.91800       12.64570
H          3.76870       -4.75730       12.53610
H          1.93360       -5.69600       10.31270
H          2.06270       -6.96890       13.08400
H          1.00670       -8.83790       11.88320
H          3.48830       -7.36900        9.61080
H          4.10170       -4.07420        6.81310
H          6.33840       -3.38800        7.44430
H         10.03380       -3.30400        7.76110
H          8.46030       -3.22590        6.95330
H          8.75480       -1.25050        8.46180
H          9.10010       -2.32720        9.82040
H          7.48330       -2.29220        9.12090
H          5.02220       -8.11670        7.89220
H         -0.54820       -8.51870        4.02960
H         -2.85440       -9.16220        3.46850
H         -6.28340       -7.34430        6.23870
H         -7.40300       -8.03970        5.05360
H         -6.27800       -6.78100        3.22090
H         -6.84600       -5.65910        4.46600
H         -5.13630       -6.09350        4.37290
H         -1.94440       -6.94750        7.76510
H         -0.17590       -6.19560        3.60640
H          2.92240       -2.83450        3.09230
H          1.82320       -0.71420        3.26520
H          3.00980        0.64170        4.88770
H          4.04120        1.67560        6.43010
H          5.06740        3.08420        6.73330
H          3.73250        4.45560        5.15940
H          2.69610        3.07770        4.78890
H          2.67780        3.78430        6.40940
H          4.82900        0.13760        0.33290
H          1.46750       -5.41200       -1.98780
H          0.11340       -6.72420       -3.51930
H         -2.50210       -8.27350       -5.60530
H         -0.88710       -7.85120       -5.02300
H         -1.99180       -9.49040       -3.47080
H         -1.78300       -7.94350       -2.64130
H         -3.36310       -8.39180       -3.28550
H         -1.30600       -2.16530       -2.29140
H          0.66680       -1.34960       -3.50440
H          0.22930        0.31850       -5.10900
H         -2.44030        2.52340       -7.86420
H         -3.56650        0.69130       -8.97970
H         -4.61700       -2.35190      -10.77640
H         -4.72120       -0.93850       -9.71890
H         -3.17440       -1.11970      -12.36820
H         -4.68710       -0.23730      -12.13130
H         -3.20540        0.31280      -11.34060
H          1.06670        0.10550       -7.40700
H          3.44090        6.15360       -6.95130
H          4.81440        7.98510       -6.05960
H          4.55120        9.23780       -1.22790
H          5.54820        7.83410       -1.69220
H          6.88910        9.49670       -0.38180
H          7.50630        9.34490       -2.03250
H          6.51850       10.73840       -1.58480
H          1.69570        5.62750       -3.07460
H          1.18310        7.03620       -7.20980
H          0.80170        8.68150       -8.71170
H          2.32010       11.89370      -11.09180
H          3.70540       12.95080       -9.38100
H          5.27850       13.27520       -7.89640
H          5.66530       13.25820       -6.16830
H          5.07790       10.84370       -6.03110
H          6.35010       11.09750       -7.23230
H          4.68260       10.82750       -7.75550
H         -0.53990       10.80640       -8.09660
H         -4.15840        9.92960      -13.32980
H         -5.74440        8.77370      -14.75840
H         -7.07430        7.95930      -16.20730
H         -7.77030        6.42910      -16.75510
H         -8.80790        7.14630      -14.58290
H         -7.21640        7.09840      -13.81400
H         -7.94340        5.61250      -14.42470
H         -1.39560        6.68250      -13.74760
H         -2.34610       10.96040      -14.68440
H         -1.33850       13.35070      -14.45960
