238

C          4.07020       -6.10010        8.74490
C          4.20230       -4.76920        8.91360
C          3.46640       -4.01340        7.95310
C          3.33980       -2.62170        7.85430
C          4.12630       -1.68790        8.66980
C          5.51510       -1.80050        8.72550
C          6.27040       -0.84890        9.37580
C          5.67570        0.23790       10.01520
S          6.75200        1.38080       10.82970
C          5.99220        3.01970       10.52770
C          5.84620        3.31980        9.05020
C          4.28590        0.30640        9.99920
F          3.63410        1.29340       10.65090
C          3.51900       -0.62070        9.32230
C          2.50220       -2.14060        6.85950
C          1.84750       -2.97290        5.91900
C          1.96670       -4.36680        6.02440
C          1.26550       -5.27390        5.10650
C          1.95230       -6.27190        4.41810
C          1.28430       -7.12550        3.56670
C         -0.09580       -7.04190        3.39530
S         -0.85610       -8.23280        2.32970
C         -2.16430       -7.29450        1.45630
C         -1.60050       -6.11090        0.69600
C         -0.77300       -6.06840        4.12280
C         -0.11220       -5.17430        4.94010
F         -2.12010       -5.98270        4.06110
C          2.77130       -4.85040        7.04790
S          3.05310       -6.53450        7.41220
C          1.20630       -2.21990        4.89770
C          1.33390       -0.87380        5.06330
S          2.22180       -0.45840        6.51810
C          1.00410        0.24320        4.23580
O          1.33140        1.45140        4.76080
C          1.20410        2.36660        3.79100
C          0.80930        1.78960        2.62390
C          0.60810        2.44350        1.30600
C          0.64430        0.39420        2.90410
C          0.23280       -0.55260        1.89790
C         -0.66380       -1.55290        1.99130
C         -1.46980       -1.90410        3.11650
C         -2.42600       -2.85540        3.02040
C         -3.31200       -3.26860        4.05180
O         -3.16350       -2.82160        5.31840
C         -4.16470       -3.35070        6.04600
C         -4.98920       -4.12630        5.28790
C         -6.18330       -4.87790        5.75840
C         -4.44040       -4.09220        3.96900
C         -4.89410       -4.69500        2.75500
C         -6.14520       -5.07040        2.41260
C         -6.42200       -5.35670        1.04070
C         -7.60230       -5.14920        0.41930
C         -7.64330       -4.90820       -0.99350
C         -8.34860       -3.90430       -1.59200
C         -7.77760       -3.46050       -2.81460
C         -8.03460       -2.22760       -3.44060
C         -9.23360       -1.45720       -3.09450
C        -10.47970       -2.07880       -3.13810
C        -11.63930       -1.38830       -2.84490
C        -11.59400       -0.04830       -2.47640
S        -12.98200        0.96580       -2.09490
C        -14.37760       -0.20400       -1.96240
C        -14.31330       -1.03990       -0.69790
C        -10.33740        0.55880       -2.42590
F        -10.25450        1.85370       -2.06080
C         -9.17590       -0.11430       -2.72810
C         -7.04160       -1.76840       -4.29580
C         -5.96910       -2.58300       -4.72920
C         -5.81880       -3.89380       -4.24070
C         -4.74600       -4.75000       -4.75840
C         -3.84830       -5.42500       -3.93400
C         -2.84870       -6.20470       -4.47490
C         -2.70980       -6.36110       -5.85300
S         -1.41880       -7.43030       -6.41540
C         -0.78970       -6.62940       -7.93730
C         -0.30690       -5.21630       -7.67980
C         -3.63010       -5.70360       -6.66430
C         -4.61580       -4.89530       -6.13740
F         -3.59180       -5.83600       -8.00890
C         -6.66350       -4.24710       -3.19890
S         -6.40150       -5.54600       -2.06120
C         -4.95550       -1.82910       -5.38420
C         -5.19510       -0.49120       -5.38020
S         -6.79960       -0.10790       -4.78650
C         -4.16430        0.52230       -5.30700
C         -3.88890        1.10070       -4.10750
C         -2.64690        1.77770       -4.07390
C         -1.98850        2.25820       -2.93540
C         -2.47810        2.01440       -1.57110
C         -2.77630        0.71330       -1.16230
C         -3.08470        0.44260        0.15190
C         -3.12720        1.45360        1.11330
S         -3.50990        0.96550        2.76280
C         -2.62810        2.19380        3.80750
C         -2.36260        1.58030        5.16760
C         -2.88810        2.75470        0.67790
F         -2.97210        3.79930        1.53080
C         -2.54700        3.03590       -0.63170
C         -0.73730        2.81280       -3.14200
C         -0.11800        2.88680       -4.41370
C         -0.76180        2.35190       -5.54700
C         -0.08360        2.35890       -6.84820
C          1.23770        1.93010       -6.96590
C          1.92770        2.05360       -8.15450
C          1.31690        2.60820       -9.27500
S          2.14220        2.88420      -10.80410
C          3.89240        3.05210      -10.27390
C          4.65960        3.80390      -11.34410
C         -0.03120        2.95480       -9.16780
C         -0.72820        2.84220       -7.98470
F         -0.66910        3.45050      -10.24530
C         -2.01840        1.79810       -5.34350
S         -2.95360        0.88680       -6.51370
C          1.19650        3.41460       -4.31760
C          1.59690        3.64980       -3.03440
S          0.32540        3.34520       -1.87330
C          2.91550        3.94110       -2.56870
C          4.02640        4.21840       -3.30800
C          5.22030        4.25970       -2.54270
C          6.53060        4.48370       -2.99490
C          6.81180        4.59780       -4.43140
C          7.56940        5.64020       -4.95880
C          7.80750        5.71760       -6.31640
C          7.29830        4.76610       -7.19460
S          7.60730        4.95210       -8.93120
C          8.25900        3.29830       -9.37910
C          9.52290        2.96700       -8.61140
C          6.53070        3.73900       -6.65700
F          5.97250        2.80260       -7.45980
C          6.30040        3.63720       -5.30180
C          7.52230        4.52720       -2.02490
C          7.27340        4.29360       -0.64890
C          5.97300        4.01610       -0.20490
C          5.66720        3.68760        1.19630
C          6.02690        4.52980        2.24540
C          5.72300        4.19440        3.54940
C          5.05570        3.01190        3.85930
S          4.66520        2.68920        5.55920
C          5.23490        0.96650        5.78890
C          6.74060        0.85190        5.66950
C          4.68130        2.19210        2.79940
C          4.98390        2.51140        1.49160
F          4.00790        1.04260        3.01970
C          4.97540        4.02490       -1.16820
S          3.28240        3.75510       -0.86570
C          8.48010        4.31280        0.11280
C          9.57220        4.55730       -0.63800
S          9.22430        4.77430       -2.31990
H          4.51040       -6.88550        9.32770
H          4.78110       -4.31830        9.69940
H          6.00280       -2.61990        8.21940
H          7.34670       -0.92380        9.39470
H          6.69510        3.70560       11.00130
H          5.04020        3.07170       11.05090
H          5.13470        2.64430        8.58040
H          5.48280        4.33630        8.91620
H          6.80420        3.22330        8.54360
H          2.44590       -0.51130        9.33310
H          3.02140       -6.36100        4.53330
H          1.82220       -7.88440        3.02020
H         -2.92770       -6.99770        2.17220
H         -2.58600       -8.03320        0.77440
H         -1.17490       -5.37810        1.38010
H         -2.39060       -5.63290        0.11850
H         -0.82010       -6.43520        0.01060
H         -0.68500       -4.43210        5.47440
H          0.71600       -2.67320        4.05730
H          1.42680        3.38490        4.04300
H          1.43760        2.20150        0.64210
H         -0.30760        2.09420        0.83370
H          0.56640        3.52390        1.41490
H          0.66370       -0.35690        0.92310
H         -0.84820       -2.13480        1.09510
H         -1.33520       -1.36660        4.04210
H         -2.56900       -3.35100        2.06990
H         -4.18570       -3.11100        7.09130
H         -6.18490       -4.93590        6.84410
H         -6.18050       -5.88540        5.34720
H         -7.09910       -4.37960        5.44060
H         -4.13950       -4.75540        1.98060
H         -6.97290       -4.98820        3.09920
H         -5.55690       -5.56100        0.42030
H         -8.48970       -4.89280        0.98170
H         -9.14750       -3.37840       -1.10010
H        -10.54270       -3.11720       -3.42800
H        -12.58240       -1.90520       -2.91520
H        -15.25280        0.44570       -1.95150
H        -14.41010       -0.81210       -2.86540
H        -14.31180       -0.39440        0.17720
H        -15.17890       -1.69750       -0.64420
H        -13.41170       -1.64820       -0.67520
H         -8.23690        0.40840       -2.64780
H         -3.91290       -5.31300       -2.86370
H         -2.14680       -6.71350       -3.83270
H         -1.56100       -6.66420       -8.70330
H          0.03460       -7.27810       -8.23430
H          0.13440       -4.80940       -8.58730
H          0.44200       -5.20590       -6.89030
H         -1.13160       -4.57140       -7.38240
H         -5.30130       -4.40540       -6.81210
H         -4.01730       -2.25290       -5.69620
H         -4.52400        0.99260       -3.24670
H         -2.72090       -0.09440       -1.87660
H         -3.28450       -0.56790        0.47270
H         -3.25000        3.08390        3.89140
H         -1.69610        2.43760        3.30070
H         -1.75460        0.68390        5.07010
H         -3.29600        1.31130        5.65710
H         -1.83090        2.29410        5.79340
H         -2.35430        4.06110       -0.90670
H          1.72700        1.47640       -6.11720
H          2.95150        1.71950       -8.20810
H          3.89480        3.60340       -9.33470
H          4.30790        2.05600      -10.12120
H          4.67250        3.24130      -12.27460
H          5.68350        3.96810      -11.01590
H          4.19860        4.77070      -11.53150
H         -1.75600        3.16710       -7.94770
H          1.83150        3.58220       -5.16720
H          3.99400        4.40180       -4.36590
H          7.96400        6.40020       -4.30270
H          8.39400        6.52690       -6.72210
H          7.47890        2.55710       -9.21840
H          8.45750        3.38040      -10.44760
H         10.27830        3.73290       -8.77280
H          9.91730        2.01080       -8.94940
H          9.32200        2.89990       -7.54330
H          5.72550        2.80250       -4.93130
H          6.53510        5.45850        2.03440
H          6.00090        4.84980        4.36010
H          4.71880        0.32700        5.07730
H          4.90050        0.71020        6.79410
H          7.04520       -0.17300        5.87170
H          7.07190        1.12290        4.66810
H          7.23050        1.50760        6.38580
H          4.68620        1.82930        0.71040
H          8.50940        4.13870        1.17300
H         10.59260        4.62870       -0.31560
