
  xtb     03022218393D
 energy: -453.685718072108 gnorm: 0.000212717669 xtb: 6.4.1 (unknown)
227254  0     0  0            999 V2000
    0.0885   -9.1194   10.0453 C   0  0  0  0  0  0  0  0  0  0  0  0
    0.1138   -8.0030    9.2890 C   0  0  0  0  0  0  0  0  0  0  0  0
   -0.9772   -7.9311    8.3750 C   0  0  0  0  0  0  0  0  0  0  0  0
   -1.2476   -6.9417    7.4179 C   0  0  0  0  0  0  0  0  0  0  0  0
   -0.3448   -5.8226    7.1956 C   0  0  0  0  0  0  0  0  0  0  0  0
   -0.9089   -4.1793    7.2392 S   0  0  0  0  0  0  0  0  0  0  0  0
    0.6597   -3.5489    6.8708 C   0  0  0  0  0  0  0  0  0  0  0  0
    0.8845   -2.0862    6.7061 C   0  0  0  0  0  0  0  0  0  0  0  0
    0.5830   -1.6424    5.2725 C   0  0  0  0  0  0  0  0  0  0  0  0
    1.5542   -4.5653    6.7135 C   0  0  0  0  0  0  0  0  0  0  0  0
    3.2098   -4.3314    6.3272 Cl  0  0  0  0  0  0  0  0  0  0  0  0
    0.9900   -5.8556    6.9026 C   0  0  0  0  0  0  0  0  0  0  0  0
    1.8949   -7.3002    6.6998 Cl  0  0  0  0  0  0  0  0  0  0  0  0
   -2.4066   -7.0906    6.6680 C   0  0  0  0  0  0  0  0  0  0  0  0
   -3.2829   -8.1930    6.8103 C   0  0  0  0  0  0  0  0  0  0  0  0
   -3.0036   -9.1934    7.7564 C   0  0  0  0  0  0  0  0  0  0  0  0
   -3.8850  -10.3390    7.9124 C   0  0  0  0  0  0  0  0  0  0  0  0
   -4.3152  -11.3284    6.5477 S   0  0  0  0  0  0  0  0  0  0  0  0
   -5.3126  -12.3644    7.5107 C   0  0  0  0  0  0  0  0  0  0  0  0
   -6.0887  -13.4715    6.8881 C   0  0  0  0  0  0  0  0  0  0  0  0
   -7.2897  -12.9242    6.1128 C   0  0  0  0  0  0  0  0  0  0  0  0
   -5.3040  -11.9532    8.8097 C   0  0  0  0  0  0  0  0  0  0  0  0
   -4.4919  -10.8096    9.0431 C   0  0  0  0  0  0  0  0  0  0  0  0
   -4.3833  -10.0620   10.5806 Cl  0  0  0  0  0  0  0  0  0  0  0  0
   -6.1821  -12.7239   10.0664 Cl  0  0  0  0  0  0  0  0  0  0  0  0
   -1.8512   -9.0369    8.5179 C   0  0  0  0  0  0  0  0  0  0  0  0
   -1.2612  -10.1485    9.7195 S   0  0  0  0  0  0  0  0  0  0  0  0
   -4.3876   -8.1055    5.9259 C   0  0  0  0  0  0  0  0  0  0  0  0
   -4.3556   -7.0042    5.1251 C   0  0  0  0  0  0  0  0  0  0  0  0
   -2.9503   -6.0001    5.4260 S   0  0  0  0  0  0  0  0  0  0  0  0
   -5.2971   -6.6125    4.1297 C   0  0  0  0  0  0  0  0  0  0  0  0
   -5.2721   -5.4724    3.3835 C   0  0  0  0  0  0  0  0  0  0  0  0
   -6.3492   -5.3721    2.4733 C   0  0  0  0  0  0  0  0  0  0  0  0
   -6.5937   -4.3509    1.5462 C   0  0  0  0  0  0  0  0  0  0  0  0
   -5.6964   -3.2224    1.3702 C   0  0  0  0  0  0  0  0  0  0  0  0
   -4.0130   -3.4625    1.0033 S   0  0  0  0  0  0  0  0  0  0  0  0
   -3.7321   -1.7663    0.8174 C   0  0  0  0  0  0  0  0  0  0  0  0
   -2.4153   -1.2400    0.3679 C   0  0  0  0  0  0  0  0  0  0  0  0
   -2.4006   -1.0926   -1.1562 C   0  0  0  0  0  0  0  0  0  0  0  0
   -4.8823   -1.0705    1.0392 C   0  0  0  0  0  0  0  0  0  0  0  0
   -4.9935    0.6332    0.9582 Cl  0  0  0  0  0  0  0  0  0  0  0  0
   -5.9987   -1.8894    1.3500 C   0  0  0  0  0  0  0  0  0  0  0  0
   -7.5367   -1.2369    1.7251 Cl  0  0  0  0  0  0  0  0  0  0  0  0
   -7.7089   -4.4971    0.7336 C   0  0  0  0  0  0  0  0  0  0  0  0
   -8.5820   -5.6097    0.7941 C   0  0  0  0  0  0  0  0  0  0  0  0
   -8.3479   -6.6257    1.7439 C   0  0  0  0  0  0  0  0  0  0  0  0
   -9.1976   -7.8013    1.8265 C   0  0  0  0  0  0  0  0  0  0  0  0
   -9.5389   -8.7612    0.4150 S   0  0  0  0  0  0  0  0  0  0  0  0
  -10.4622   -9.9113    1.3200 C   0  0  0  0  0  0  0  0  0  0  0  0
  -11.1331  -11.0591    0.6507 C   0  0  0  0  0  0  0  0  0  0  0  0
  -12.4594  -10.6253    0.0219 C   0  0  0  0  0  0  0  0  0  0  0  0
  -10.5070   -9.5513    2.6334 C   0  0  0  0  0  0  0  0  0  0  0  0
   -9.7881   -8.3608    2.9262 C   0  0  0  0  0  0  0  0  0  0  0  0
   -9.7656   -7.6719    4.4945 Cl  0  0  0  0  0  0  0  0  0  0  0  0
  -11.3360  -10.4424    3.8427 Cl  0  0  0  0  0  0  0  0  0  0  0  0
   -7.2334   -6.4787    2.5616 C   0  0  0  0  0  0  0  0  0  0  0  0
   -6.6741   -7.6250    3.7484 S   0  0  0  0  0  0  0  0  0  0  0  0
   -9.5912   -5.5240   -0.1918 C   0  0  0  0  0  0  0  0  0  0  0  0
   -9.4851   -4.4213   -1.0028 C   0  0  0  0  0  0  0  0  0  0  0  0
   -8.1422   -3.4089   -0.5393 S   0  0  0  0  0  0  0  0  0  0  0  0
  -10.3072   -4.1008   -2.1343 C   0  0  0  0  0  0  0  0  0  0  0  0
  -10.0979   -3.1023   -3.0615 C   0  0  0  0  0  0  0  0  0  0  0  0
  -10.9183   -2.9636   -4.2986 C   0  0  0  0  0  0  0  0  0  0  0  0
  -12.0373   -3.7706   -4.5856 C   0  0  0  0  0  0  0  0  0  0  0  0
  -12.4487   -4.7536   -3.7616 C   0  0  0  0  0  0  0  0  0  0  0  0
  -11.6619   -5.1949   -2.2950 S   0  0  0  0  0  0  0  0  0  0  0  0
  -10.4864   -2.0139   -5.0954 N   0  0  0  0  0  0  0  0  0  0  0  0
   -9.4129   -1.4541   -4.4741 C   0  0  0  0  0  0  0  0  0  0  0  0
   -9.1435   -2.0681   -3.2289 C   0  0  0  0  0  0  0  0  0  0  0  0
   -7.8194   -1.2894   -2.4447 S   0  0  0  0  0  0  0  0  0  0  0  0
   -7.6107   -0.2039   -3.8031 C   0  0  0  0  0  0  0  0  0  0  0  0
   -8.5289   -0.4177   -4.8028 C   0  0  0  0  0  0  0  0  0  0  0  0
   -6.5204    0.7203   -3.7711 C   0  0  0  0  0  0  0  0  0  0  0  0
   -5.8107    1.2234   -4.8217 C   0  0  0  0  0  0  0  0  0  0  0  0
   -4.7070    2.0228   -4.4296 C   0  0  0  0  0  0  0  0  0  0  0  0
   -3.7078    2.5925   -5.2412 C   0  0  0  0  0  0  0  0  0  0  0  0
   -3.7202    2.4495   -6.6874 C   0  0  0  0  0  0  0  0  0  0  0  0
   -3.8659    0.8945   -7.4538 S   0  0  0  0  0  0  0  0  0  0  0  0
   -3.7564    1.5757   -9.0406 C   0  0  0  0  0  0  0  0  0  0  0  0
   -3.7680    0.7129  -10.2537 C   0  0  0  0  0  0  0  0  0  0  0  0
   -2.3672    0.1748  -10.5552 C   0  0  0  0  0  0  0  0  0  0  0  0
   -3.6091    2.9284   -8.9646 C   0  0  0  0  0  0  0  0  0  0  0  0
   -3.4717    3.9536  -10.3334 Cl  0  0  0  0  0  0  0  0  0  0  0  0
   -3.5891    3.4276   -7.6345 C   0  0  0  0  0  0  0  0  0  0  0  0
   -3.4939    5.1024   -7.2849 Cl  0  0  0  0  0  0  0  0  0  0  0  0
   -2.6735    3.2607   -4.5956 C   0  0  0  0  0  0  0  0  0  0  0  0
   -2.6490    3.4539   -3.1931 C   0  0  0  0  0  0  0  0  0  0  0  0
   -3.6556    2.9056   -2.3826 C   0  0  0  0  0  0  0  0  0  0  0  0
   -3.6176    3.0843   -0.9386 C   0  0  0  0  0  0  0  0  0  0  0  0
   -4.9425    3.8266   -0.0938 S   0  0  0  0  0  0  0  0  0  0  0  0
   -4.1245    3.7408    1.4282 C   0  0  0  0  0  0  0  0  0  0  0  0
   -4.7674    4.2241    2.6816 C   0  0  0  0  0  0  0  0  0  0  0  0
   -5.6204    3.1298    3.3278 C   0  0  0  0  0  0  0  0  0  0  0  0
   -2.9047    3.1522    1.2752 C   0  0  0  0  0  0  0  0  0  0  0  0
   -2.6083    2.7905   -0.0648 C   0  0  0  0  0  0  0  0  0  0  0  0
   -1.1369    2.0211   -0.5041 Cl  0  0  0  0  0  0  0  0  0  0  0  0
   -1.8112    2.8684    2.5638 Cl  0  0  0  0  0  0  0  0  0  0  0  0
   -4.6451    2.1738   -3.0209 C   0  0  0  0  0  0  0  0  0  0  0  0
   -5.8959    1.2627   -2.2284 S   0  0  0  0  0  0  0  0  0  0  0  0
   -1.4829    4.1306   -2.7707 C   0  0  0  0  0  0  0  0  0  0  0  0
   -0.5878    4.3539   -3.7758 C   0  0  0  0  0  0  0  0  0  0  0  0
   -1.2154    3.8660   -5.3349 S   0  0  0  0  0  0  0  0  0  0  0  0
    0.7692    4.7577   -3.5772 C   0  0  0  0  0  0  0  0  0  0  0  0
    1.4321    4.6348   -2.3895 C   0  0  0  0  0  0  0  0  0  0  0  0
    2.8080    4.9419   -2.4715 C   0  0  0  0  0  0  0  0  0  0  0  0
    3.7770    4.8120   -1.4602 C   0  0  0  0  0  0  0  0  0  0  0  0
    3.4243    4.3132   -0.1407 C   0  0  0  0  0  0  0  0  0  0  0  0
    2.5271    2.8317    0.0419 S   0  0  0  0  0  0  0  0  0  0  0  0
    2.5579    2.9252    1.7672 C   0  0  0  0  0  0  0  0  0  0  0  0
    1.8965    1.9063    2.6313 C   0  0  0  0  0  0  0  0  0  0  0  0
    1.5869    0.6139    1.8882 C   0  0  0  0  0  0  0  0  0  0  0  0
    3.2274    4.0454    2.1633 C   0  0  0  0  0  0  0  0  0  0  0  0
    3.4562    4.4774    3.8088 Cl  0  0  0  0  0  0  0  0  0  0  0  0
    3.7218    4.8322    1.0895 C   0  0  0  0  0  0  0  0  0  0  0  0
    4.5270    6.3233    1.3440 Cl  0  0  0  0  0  0  0  0  0  0  0  0
    5.0856    5.1175   -1.8095 C   0  0  0  0  0  0  0  0  0  0  0  0
    5.4541    5.5567   -3.1068 C   0  0  0  0  0  0  0  0  0  0  0  0
    4.4788    5.7056   -4.1092 C   0  0  0  0  0  0  0  0  0  0  0  0
    4.8264    6.1531   -5.4476 C   0  0  0  0  0  0  0  0  0  0  0  0
    6.0777    5.3769   -6.3741 S   0  0  0  0  0  0  0  0  0  0  0  0
    5.8402    6.4284   -7.7268 C   0  0  0  0  0  0  0  0  0  0  0  0
    6.6230    6.2627   -8.9823 C   0  0  0  0  0  0  0  0  0  0  0  0
    5.9334    5.2763   -9.9280 C   0  0  0  0  0  0  0  0  0  0  0  0
    4.8413    7.3177   -7.4648 C   0  0  0  0  0  0  0  0  0  0  0  0
    4.2656    7.1669   -6.1747 C   0  0  0  0  0  0  0  0  0  0  0  0
    3.0526    8.2225   -5.5830 Cl  0  0  0  0  0  0  0  0  0  0  0  0
    4.3224    8.5236   -8.5692 Cl  0  0  0  0  0  0  0  0  0  0  0  0
    3.1731    5.3734   -3.7706 C   0  0  0  0  0  0  0  0  0  0  0  0
    1.8125    5.3227   -4.8584 S   0  0  0  0  0  0  0  0  0  0  0  0
    6.8508    5.7643   -3.2127 C   0  0  0  0  0  0  0  0  0  0  0  0
    7.5344    5.4681   -2.0710 C   0  0  0  0  0  0  0  0  0  0  0  0
    6.4772    4.9418   -0.7802 S   0  0  0  0  0  0  0  0  0  0  0  0
    8.9438    5.5273   -1.8645 C   0  0  0  0  0  0  0  0  0  0  0  0
    9.6283    5.3254   -0.7040 C   0  0  0  0  0  0  0  0  0  0  0  0
   11.0345    5.4297   -0.8516 C   0  0  0  0  0  0  0  0  0  0  0  0
   12.0264    5.2727    0.1306 C   0  0  0  0  0  0  0  0  0  0  0  0
   11.6830    4.9467    1.5056 C   0  0  0  0  0  0  0  0  0  0  0  0
   10.7157    3.5522    1.8876 S   0  0  0  0  0  0  0  0  0  0  0  0
   10.7967    3.8624    3.5877 C   0  0  0  0  0  0  0  0  0  0  0  0
   10.1662    2.9422    4.5736 C   0  0  0  0  0  0  0  0  0  0  0  0
   11.1246    1.8121    4.9573 C   0  0  0  0  0  0  0  0  0  0  0  0
   11.5376    4.9804    3.8293 C   0  0  0  0  0  0  0  0  0  0  0  0
   11.8392    5.6061    5.3980 Cl  0  0  0  0  0  0  0  0  0  0  0  0
   12.0385    5.6000    2.6527 C   0  0  0  0  0  0  0  0  0  0  0  0
   12.9215    7.0676    2.6933 Cl  0  0  0  0  0  0  0  0  0  0  0  0
   13.3467    5.4306   -0.2750 C   0  0  0  0  0  0  0  0  0  0  0  0
   13.7123    5.7337   -1.6092 C   0  0  0  0  0  0  0  0  0  0  0  0
   12.7220    5.8711   -2.5932 C   0  0  0  0  0  0  0  0  0  0  0  0
   13.0581    6.1001   -3.9895 C   0  0  0  0  0  0  0  0  0  0  0  0
   12.3534    7.4059   -4.8934 S   0  0  0  0  0  0  0  0  0  0  0  0
   13.1804    6.9507   -6.3442 C   0  0  0  0  0  0  0  0  0  0  0  0
   12.9544    7.6867   -7.6183 C   0  0  0  0  0  0  0  0  0  0  0  0
   11.6295    7.2665   -8.2594 C   0  0  0  0  0  0  0  0  0  0  0  0
   13.9473    5.8455   -6.1260 C   0  0  0  0  0  0  0  0  0  0  0  0
   13.8845    5.3629   -4.7909 C   0  0  0  0  0  0  0  0  0  0  0  0
   14.7049    3.9434   -4.2824 Cl  0  0  0  0  0  0  0  0  0  0  0  0
   14.9065    5.0890   -7.3317 Cl  0  0  0  0  0  0  0  0  0  0  0  0
   11.4021    5.7368   -2.1836 C   0  0  0  0  0  0  0  0  0  0  0  0
   10.0068    5.8670   -3.2158 S   0  0  0  0  0  0  0  0  0  0  0  0
   15.1249    5.8586   -1.7512 C   0  0  0  0  0  0  0  0  0  0  0  0
   15.7883    5.6190   -0.6018 C   0  0  0  0  0  0  0  0  0  0  0  0
   14.7540    5.2455    0.7318 S   0  0  0  0  0  0  0  0  0  0  0  0
    0.7876   -9.4174   10.8021 H   0  0  0  0  0  0  0  0  0  0  0  0
    0.8690   -7.2435    9.3708 H   0  0  0  0  0  0  0  0  0  0  0  0
    0.2393   -1.5415    7.3972 H   0  0  0  0  0  0  0  0  0  0  0  0
    1.9253   -1.8614    6.9462 H   0  0  0  0  0  0  0  0  0  0  0  0
    1.2361   -2.1597    4.5739 H   0  0  0  0  0  0  0  0  0  0  0  0
   -0.4497   -1.8681    5.0169 H   0  0  0  0  0  0  0  0  0  0  0  0
    0.7421   -0.5716    5.1754 H   0  0  0  0  0  0  0  0  0  0  0  0
   -6.4316  -14.1431    7.6766 H   0  0  0  0  0  0  0  0  0  0  0  0
   -5.4443  -14.0316    6.2074 H   0  0  0  0  0  0  0  0  0  0  0  0
   -7.9489  -12.3721    6.7780 H   0  0  0  0  0  0  0  0  0  0  0  0
   -6.9560  -12.2565    5.3217 H   0  0  0  0  0  0  0  0  0  0  0  0
   -7.8505  -13.7411    5.6669 H   0  0  0  0  0  0  0  0  0  0  0  0
   -5.1844   -8.8257    5.8846 H   0  0  0  0  0  0  0  0  0  0  0  0
   -4.5045   -4.7270    3.4855 H   0  0  0  0  0  0  0  0  0  0  0  0
   -1.6224   -1.9215    0.6787 H   0  0  0  0  0  0  0  0  0  0  0  0
   -2.2427   -0.2667    0.8308 H   0  0  0  0  0  0  0  0  0  0  0  0
   -1.4353   -0.7208   -1.4879 H   0  0  0  0  0  0  0  0  0  0  0  0
   -3.1713   -0.3947   -1.4752 H   0  0  0  0  0  0  0  0  0  0  0  0
   -2.5856   -2.0537   -1.6301 H   0  0  0  0  0  0  0  0  0  0  0  0
  -10.4788  -11.4615   -0.1247 H   0  0  0  0  0  0  0  0  0  0  0  0
  -11.3164  -11.8372    1.3937 H   0  0  0  0  0  0  0  0  0  0  0  0
  -13.1264  -10.2308    0.7842 H   0  0  0  0  0  0  0  0  0  0  0  0
  -12.2880   -9.8533   -0.7246 H   0  0  0  0  0  0  0  0  0  0  0  0
  -12.9404  -11.4738   -0.4567 H   0  0  0  0  0  0  0  0  0  0  0  0
  -10.3600   -6.2652   -0.3120 H   0  0  0  0  0  0  0  0  0  0  0  0
  -12.5702   -3.5676   -5.5019 H   0  0  0  0  0  0  0  0  0  0  0  0
  -13.3111   -5.3675   -3.9606 H   0  0  0  0  0  0  0  0  0  0  0  0
   -8.5749    0.1560   -5.7092 H   0  0  0  0  0  0  0  0  0  0  0  0
   -6.0467    0.9917   -5.8434 H   0  0  0  0  0  0  0  0  0  0  0  0
   -4.4524   -0.1229  -10.0981 H   0  0  0  0  0  0  0  0  0  0  0  0
   -4.1226    1.3044  -11.0997 H   0  0  0  0  0  0  0  0  0  0  0  0
   -2.3905   -0.4480  -11.4453 H   0  0  0  0  0  0  0  0  0  0  0  0
   -1.6760    0.9969  -10.7224 H   0  0  0  0  0  0  0  0  0  0  0  0
   -2.0042   -0.4206   -9.7208 H   0  0  0  0  0  0  0  0  0  0  0  0
   -3.9871    4.5374    3.3787 H   0  0  0  0  0  0  0  0  0  0  0  0
   -5.3968    5.0857    2.4524 H   0  0  0  0  0  0  0  0  0  0  0  0
   -6.4014    2.8063    2.6443 H   0  0  0  0  0  0  0  0  0  0  0  0
   -6.0845    3.5081    4.2347 H   0  0  0  0  0  0  0  0  0  0  0  0
   -5.0052    2.2706    3.5826 H   0  0  0  0  0  0  0  0  0  0  0  0
   -1.3073    4.4310   -1.7558 H   0  0  0  0  0  0  0  0  0  0  0  0
    0.9568    4.2915   -1.4910 H   0  0  0  0  0  0  0  0  0  0  0  0
    2.5461    1.7081    3.4882 H   0  0  0  0  0  0  0  0  0  0  0  0
    0.9664    2.3317    3.0221 H   0  0  0  0  0  0  0  0  0  0  0  0
    0.9211    0.8111    1.0517 H   0  0  0  0  0  0  0  0  0  0  0  0
    1.1030   -0.0958    2.5539 H   0  0  0  0  0  0  0  0  0  0  0  0
    2.4998    0.1665    1.5029 H   0  0  0  0  0  0  0  0  0  0  0  0
    7.6229    5.8984   -8.7405 H   0  0  0  0  0  0  0  0  0  0  0  0
    6.7116    7.2348   -9.4710 H   0  0  0  0  0  0  0  0  0  0  0  0
    6.5144    5.1646  -10.8394 H   0  0  0  0  0  0  0  0  0  0  0  0
    5.8368    4.3029   -9.4530 H   0  0  0  0  0  0  0  0  0  0  0  0
    4.9413    5.6358  -10.1883 H   0  0  0  0  0  0  0  0  0  0  0  0
    7.3418    6.1156   -4.1018 H   0  0  0  0  0  0  0  0  0  0  0  0
    9.1363    5.1125    0.2278 H   0  0  0  0  0  0  0  0  0  0  0  0
    9.2568    2.5190    4.1440 H   0  0  0  0  0  0  0  0  0  0  0  0
    9.9006    3.5134    5.4652 H   0  0  0  0  0  0  0  0  0  0  0  0
   11.3949    1.2315    4.0784 H   0  0  0  0  0  0  0  0  0  0  0  0
   10.6530    1.1524    5.6806 H   0  0  0  0  0  0  0  0  0  0  0  0
   12.0311    2.2204    5.3966 H   0  0  0  0  0  0  0  0  0  0  0  0
   12.9360    8.7600   -7.4206 H   0  0  0  0  0  0  0  0  0  0  0  0
   13.7791    7.4699   -8.2992 H   0  0  0  0  0  0  0  0  0  0  0  0
   11.6377    6.2012   -8.4764 H   0  0  0  0  0  0  0  0  0  0  0  0
   11.4745    7.8106   -9.1871 H   0  0  0  0  0  0  0  0  0  0  0  0
   10.8024    7.4779   -7.5857 H   0  0  0  0  0  0  0  0  0  0  0  0
   15.6061    6.1254   -2.6738 H   0  0  0  0  0  0  0  0  0  0  0  0
   16.8477    5.6432   -0.4360 H   0  0  0  0  0  0  0  0  0  0  0  0
  1  2  2  0  0  0  0
  2  3  1  0  0  0  0
  3  4  2  0  0  0  0
  4  5  1  0  0  0  0
  5  6  1  0  0  0  0
  6  7  1  0  0  0  0
  7  8  1  0  0  0  0
  8  9  1  0  0  0  0
  7 10  2  0  0  0  0
 10 11  1  0  0  0  0
 10 12  1  0  0  0  0
 12 13  1  0  0  0  0
  4 14  1  0  0  0  0
 14 15  2  0  0  0  0
 15 16  1  0  0  0  0
 16 17  1  0  0  0  0
 17 18  1  0  0  0  0
 18 19  1  0  0  0  0
 19 20  1  0  0  0  0
 20 21  1  0  0  0  0
 19 22  2  0  0  0  0
 22 23  1  0  0  0  0
 23 24  1  0  0  0  0
 22 25  1  0  0  0  0
 16 26  2  0  0  0  0
 26 27  1  0  0  0  0
 15 28  1  0  0  0  0
 28 29  2  0  0  0  0
 29 30  1  0  0  0  0
 29 31  1  0  0  0  0
 31 32  2  0  0  0  0
 32 33  1  0  0  0  0
 33 34  2  0  0  0  0
 34 35  1  0  0  0  0
 35 36  1  0  0  0  0
 36 37  1  0  0  0  0
 37 38  1  0  0  0  0
 38 39  1  0  0  0  0
 37 40  2  0  0  0  0
 40 41  1  0  0  0  0
 40 42  1  0  0  0  0
 42 43  1  0  0  0  0
 34 44  1  0  0  0  0
 44 45  2  0  0  0  0
 45 46  1  0  0  0  0
 46 47  1  0  0  0  0
 47 48  1  0  0  0  0
 48 49  1  0  0  0  0
 49 50  1  0  0  0  0
 50 51  1  0  0  0  0
 49 52  2  0  0  0  0
 52 53  1  0  0  0  0
 53 54  1  0  0  0  0
 52 55  1  0  0  0  0
 46 56  2  0  0  0  0
 56 57  1  0  0  0  0
 45 58  1  0  0  0  0
 58 59  2  0  0  0  0
 59 60  1  0  0  0  0
 59 61  1  0  0  0  0
 61 62  2  0  0  0  0
 62 63  1  0  0  0  0
 63 64  1  0  0  0  0
 64 65  2  0  0  0  0
 65 66  1  0  0  0  0
 63 67  2  0  0  0  0
 67 68  1  0  0  0  0
 68 69  2  0  0  0  0
 69 70  1  0  0  0  0
 70 71  1  0  0  0  0
 71 72  2  0  0  0  0
 71 73  1  0  0  0  0
 73 74  2  0  0  0  0
 74 75  1  0  0  0  0
 75 76  2  0  0  0  0
 76 77  1  0  0  0  0
 77 78  1  0  0  0  0
 78 79  1  0  0  0  0
 79 80  1  0  0  0  0
 80 81  1  0  0  0  0
 79 82  2  0  0  0  0
 82 83  1  0  0  0  0
 82 84  1  0  0  0  0
 84 85  1  0  0  0  0
 76 86  1  0  0  0  0
 86 87  2  0  0  0  0
 87 88  1  0  0  0  0
 88 89  1  0  0  0  0
 89 90  1  0  0  0  0
 90 91  1  0  0  0  0
 91 92  1  0  0  0  0
 92 93  1  0  0  0  0
 91 94  2  0  0  0  0
 94 95  1  0  0  0  0
 95 96  1  0  0  0  0
 94 97  1  0  0  0  0
 88 98  2  0  0  0  0
 98 99  1  0  0  0  0
 87100  1  0  0  0  0
100101  2  0  0  0  0
101102  1  0  0  0  0
101103  1  0  0  0  0
103104  2  0  0  0  0
104105  1  0  0  0  0
105106  2  0  0  0  0
106107  1  0  0  0  0
107108  1  0  0  0  0
108109  1  0  0  0  0
109110  1  0  0  0  0
110111  1  0  0  0  0
109112  2  0  0  0  0
112113  1  0  0  0  0
112114  1  0  0  0  0
114115  1  0  0  0  0
106116  1  0  0  0  0
116117  2  0  0  0  0
117118  1  0  0  0  0
118119  1  0  0  0  0
119120  1  0  0  0  0
120121  1  0  0  0  0
121122  1  0  0  0  0
122123  1  0  0  0  0
121124  2  0  0  0  0
124125  1  0  0  0  0
125126  1  0  0  0  0
124127  1  0  0  0  0
118128  2  0  0  0  0
128129  1  0  0  0  0
117130  1  0  0  0  0
130131  2  0  0  0  0
131132  1  0  0  0  0
131133  1  0  0  0  0
133134  2  0  0  0  0
134135  1  0  0  0  0
135136  2  0  0  0  0
136137  1  0  0  0  0
137138  1  0  0  0  0
138139  1  0  0  0  0
139140  1  0  0  0  0
140141  1  0  0  0  0
139142  2  0  0  0  0
142143  1  0  0  0  0
142144  1  0  0  0  0
144145  1  0  0  0  0
136146  1  0  0  0  0
146147  2  0  0  0  0
147148  1  0  0  0  0
148149  1  0  0  0  0
149150  1  0  0  0  0
150151  1  0  0  0  0
151152  1  0  0  0  0
152153  1  0  0  0  0
151154  2  0  0  0  0
154155  1  0  0  0  0
155156  1  0  0  0  0
154157  1  0  0  0  0
148158  2  0  0  0  0
158159  1  0  0  0  0
147160  1  0  0  0  0
160161  2  0  0  0  0
161162  1  0  0  0  0
 27  1  1  0  0  0  0
 57 31  1  0  0  0  0
 66 61  1  0  0  0  0
 72 68  1  0  0  0  0
 99 73  1  0  0  0  0
129103  1  0  0  0  0
159133  1  0  0  0  0
 26  3  1  0  0  0  0
 56 33  1  0  0  0  0
 69 62  1  0  0  0  0
 98 75  1  0  0  0  0
128105  1  0  0  0  0
158135  1  0  0  0  0
 12  5  2  0  0  0  0
 30 14  1  0  0  0  0
 42 35  2  0  0  0  0
 60 44  1  0  0  0  0
 84 77  2  0  0  0  0
102 86  1  0  0  0  0
114107  2  0  0  0  0
132116  1  0  0  0  0
144137  2  0  0  0  0
162146  1  0  0  0  0
 23 17  2  0  0  0  0
 53 47  2  0  0  0  0
 95 89  2  0  0  0  0
125119  2  0  0  0  0
155149  2  0  0  0  0
  1163  1  0  0  0  0
  2164  1  0  0  0  0
  8165  1  0  0  0  0
  8166  1  0  0  0  0
  9167  1  0  0  0  0
  9168  1  0  0  0  0
  9169  1  0  0  0  0
 20170  1  0  0  0  0
 20171  1  0  0  0  0
 21172  1  0  0  0  0
 21173  1  0  0  0  0
 21174  1  0  0  0  0
 28175  1  0  0  0  0
 32176  1  0  0  0  0
 38177  1  0  0  0  0
 38178  1  0  0  0  0
 39179  1  0  0  0  0
 39180  1  0  0  0  0
 39181  1  0  0  0  0
 50182  1  0  0  0  0
 50183  1  0  0  0  0
 51184  1  0  0  0  0
 51185  1  0  0  0  0
 51186  1  0  0  0  0
 58187  1  0  0  0  0
 64188  1  0  0  0  0
 65189  1  0  0  0  0
 72190  1  0  0  0  0
 74191  1  0  0  0  0
 80192  1  0  0  0  0
 80193  1  0  0  0  0
 81194  1  0  0  0  0
 81195  1  0  0  0  0
 81196  1  0  0  0  0
 92197  1  0  0  0  0
 92198  1  0  0  0  0
 93199  1  0  0  0  0
 93200  1  0  0  0  0
 93201  1  0  0  0  0
100202  1  0  0  0  0
104203  1  0  0  0  0
110204  1  0  0  0  0
110205  1  0  0  0  0
111206  1  0  0  0  0
111207  1  0  0  0  0
111208  1  0  0  0  0
122209  1  0  0  0  0
122210  1  0  0  0  0
123211  1  0  0  0  0
123212  1  0  0  0  0
123213  1  0  0  0  0
130214  1  0  0  0  0
134215  1  0  0  0  0
140216  1  0  0  0  0
140217  1  0  0  0  0
141218  1  0  0  0  0
141219  1  0  0  0  0
141220  1  0  0  0  0
152221  1  0  0  0  0
152222  1  0  0  0  0
153223  1  0  0  0  0
153224  1  0  0  0  0
153225  1  0  0  0  0
160226  1  0  0  0  0
161227  1  0  0  0  0
M  END
