227

C          0.08850       -9.11940       10.04530
C          0.11380       -8.00300        9.28900
C         -0.97720       -7.93110        8.37500
C         -1.24760       -6.94170        7.41790
C         -0.34480       -5.82260        7.19560
S         -0.90890       -4.17930        7.23920
C          0.65970       -3.54890        6.87080
C          0.88450       -2.08620        6.70610
C          0.58300       -1.64240        5.27250
C          1.55420       -4.56530        6.71350
Cl         3.20980       -4.33140        6.32720
C          0.99000       -5.85560        6.90260
Cl         1.89490       -7.30020        6.69980
C         -2.40660       -7.09060        6.66800
C         -3.28290       -8.19300        6.81030
C         -3.00360       -9.19340        7.75640
C         -3.88500      -10.33900        7.91240
S         -4.31520      -11.32840        6.54770
C         -5.31260      -12.36440        7.51070
C         -6.08870      -13.47150        6.88810
C         -7.28970      -12.92420        6.11280
C         -5.30400      -11.95320        8.80970
C         -4.49190      -10.80960        9.04310
Cl        -4.38330      -10.06200       10.58060
Cl        -6.18210      -12.72390       10.06640
C         -1.85120       -9.03690        8.51790
S         -1.26120      -10.14850        9.71950
C         -4.38760       -8.10550        5.92590
C         -4.35560       -7.00420        5.12510
S         -2.95030       -6.00010        5.42600
C         -5.29710       -6.61250        4.12970
C         -5.27210       -5.47240        3.38350
C         -6.34920       -5.37210        2.47330
C         -6.59370       -4.35090        1.54620
C         -5.69640       -3.22240        1.37020
S         -4.01300       -3.46250        1.00330
C         -3.73210       -1.76630        0.81740
C         -2.41530       -1.24000        0.36790
C         -2.40060       -1.09260       -1.15620
C         -4.88230       -1.07050        1.03920
Cl        -4.99350        0.63320        0.95820
C         -5.99870       -1.88940        1.35000
Cl        -7.53670       -1.23690        1.72510
C         -7.70890       -4.49710        0.73360
C         -8.58200       -5.60970        0.79410
C         -8.34790       -6.62570        1.74390
C         -9.19760       -7.80130        1.82650
S         -9.53890       -8.76120        0.41500
C        -10.46220       -9.91130        1.32000
C        -11.13310      -11.05910        0.65070
C        -12.45940      -10.62530        0.02190
C        -10.50700       -9.55130        2.63340
C         -9.78810       -8.36080        2.92620
Cl        -9.76560       -7.67190        4.49450
Cl       -11.33600      -10.44240        3.84270
C         -7.23340       -6.47870        2.56160
S         -6.67410       -7.62500        3.74840
C         -9.59120       -5.52400       -0.19180
C         -9.48510       -4.42130       -1.00280
S         -8.14220       -3.40890       -0.53930
C        -10.30720       -4.10080       -2.13430
C        -10.09790       -3.10230       -3.06150
C        -10.91830       -2.96360       -4.29860
C        -12.03730       -3.77060       -4.58560
C        -12.44870       -4.75360       -3.76160
S        -11.66190       -5.19490       -2.29500
N        -10.48640       -2.01390       -5.09540
C         -9.41290       -1.45410       -4.47410
C         -9.14350       -2.06810       -3.22890
S         -7.81940       -1.28940       -2.44470
C         -7.61070       -0.20390       -3.80310
C         -8.52890       -0.41770       -4.80280
C         -6.52040        0.72030       -3.77110
C         -5.81070        1.22340       -4.82170
C         -4.70700        2.02280       -4.42960
C         -3.70780        2.59250       -5.24120
C         -3.72020        2.44950       -6.68740
S         -3.86590        0.89450       -7.45380
C         -3.75640        1.57570       -9.04060
C         -3.76800        0.71290      -10.25370
C         -2.36720        0.17480      -10.55520
C         -3.60910        2.92840       -8.96460
Cl        -3.47170        3.95360      -10.33340
C         -3.58910        3.42760       -7.63450
Cl        -3.49390        5.10240       -7.28490
C         -2.67350        3.26070       -4.59560
C         -2.64900        3.45390       -3.19310
C         -3.65560        2.90560       -2.38260
C         -3.61760        3.08430       -0.93860
S         -4.94250        3.82660       -0.09380
C         -4.12450        3.74080        1.42820
C         -4.76740        4.22410        2.68160
C         -5.62040        3.12980        3.32780
C         -2.90470        3.15220        1.27520
C         -2.60830        2.79050       -0.06480
Cl        -1.13690        2.02110       -0.50410
Cl        -1.81120        2.86840        2.56380
C         -4.64510        2.17380       -3.02090
S         -5.89590        1.26270       -2.22840
C         -1.48290        4.13060       -2.77070
C         -0.58780        4.35390       -3.77580
S         -1.21540        3.86600       -5.33490
C          0.76920        4.75770       -3.57720
C          1.43210        4.63480       -2.38950
C          2.80800        4.94190       -2.47150
C          3.77700        4.81200       -1.46020
C          3.42430        4.31320       -0.14070
S          2.52710        2.83170        0.04190
C          2.55790        2.92520        1.76720
C          1.89650        1.90630        2.63130
C          1.58690        0.61390        1.88820
C          3.22740        4.04540        2.16330
Cl         3.45620        4.47740        3.80880
C          3.72180        4.83220        1.08950
Cl         4.52700        6.32330        1.34400
C          5.08560        5.11750       -1.80950
C          5.45410        5.55670       -3.10680
C          4.47880        5.70560       -4.10920
C          4.82640        6.15310       -5.44760
S          6.07770        5.37690       -6.37410
C          5.84020        6.42840       -7.72680
C          6.62300        6.26270       -8.98230
C          5.93340        5.27630       -9.92800
C          4.84130        7.31770       -7.46480
C          4.26560        7.16690       -6.17470
Cl         3.05260        8.22250       -5.58300
Cl         4.32240        8.52360       -8.56920
C          3.17310        5.37340       -3.77060
S          1.81250        5.32270       -4.85840
C          6.85080        5.76430       -3.21270
C          7.53440        5.46810       -2.07100
S          6.47720        4.94180       -0.78020
C          8.94380        5.52730       -1.86450
C          9.62830        5.32540       -0.70400
C         11.03450        5.42970       -0.85160
C         12.02640        5.27270        0.13060
C         11.68300        4.94670        1.50560
S         10.71570        3.55220        1.88760
C         10.79670        3.86240        3.58770
C         10.16620        2.94220        4.57360
C         11.12460        1.81210        4.95730
C         11.53760        4.98040        3.82930
Cl        11.83920        5.60610        5.39800
C         12.03850        5.60000        2.65270
Cl        12.92150        7.06760        2.69330
C         13.34670        5.43060       -0.27500
C         13.71230        5.73370       -1.60920
C         12.72200        5.87110       -2.59320
C         13.05810        6.10010       -3.98950
S         12.35340        7.40590       -4.89340
C         13.18040        6.95070       -6.34420
C         12.95440        7.68670       -7.61830
C         11.62950        7.26650       -8.25940
C         13.94730        5.84550       -6.12600
C         13.88450        5.36290       -4.79090
Cl        14.70490        3.94340       -4.28240
Cl        14.90650        5.08900       -7.33170
C         11.40210        5.73680       -2.18360
S         10.00680        5.86700       -3.21580
C         15.12490        5.85860       -1.75120
C         15.78830        5.61900       -0.60180
S         14.75400        5.24550        0.73180
H          0.78760       -9.41740       10.80210
H          0.86900       -7.24350        9.37080
H          0.23930       -1.54150        7.39720
H          1.92530       -1.86140        6.94620
H          1.23610       -2.15970        4.57390
H         -0.44970       -1.86810        5.01690
H          0.74210       -0.57160        5.17540
H         -6.43160      -14.14310        7.67660
H         -5.44430      -14.03160        6.20740
H         -7.94890      -12.37210        6.77800
H         -6.95600      -12.25650        5.32170
H         -7.85050      -13.74110        5.66690
H         -5.18440       -8.82570        5.88460
H         -4.50450       -4.72700        3.48550
H         -1.62240       -1.92150        0.67870
H         -2.24270       -0.26670        0.83080
H         -1.43530       -0.72080       -1.48790
H         -3.17130       -0.39470       -1.47520
H         -2.58560       -2.05370       -1.63010
H        -10.47880      -11.46150       -0.12470
H        -11.31640      -11.83720        1.39370
H        -13.12640      -10.23080        0.78420
H        -12.28800       -9.85330       -0.72460
H        -12.94040      -11.47380       -0.45670
H        -10.36000       -6.26520       -0.31200
H        -12.57020       -3.56760       -5.50190
H        -13.31110       -5.36750       -3.96060
H         -8.57490        0.15600       -5.70920
H         -6.04670        0.99170       -5.84340
H         -4.45240       -0.12290      -10.09810
H         -4.12260        1.30440      -11.09970
H         -2.39050       -0.44800      -11.44530
H         -1.67600        0.99690      -10.72240
H         -2.00420       -0.42060       -9.72080
H         -3.98710        4.53740        3.37870
H         -5.39680        5.08570        2.45240
H         -6.40140        2.80630        2.64430
H         -6.08450        3.50810        4.23470
H         -5.00520        2.27060        3.58260
H         -1.30730        4.43100       -1.75580
H          0.95680        4.29150       -1.49100
H          2.54610        1.70810        3.48820
H          0.96640        2.33170        3.02210
H          0.92110        0.81110        1.05170
H          1.10300       -0.09580        2.55390
H          2.49980        0.16650        1.50290
H          7.62290        5.89840       -8.74050
H          6.71160        7.23480       -9.47100
H          6.51440        5.16460      -10.83940
H          5.83680        4.30290       -9.45300
H          4.94130        5.63580      -10.18830
H          7.34180        6.11560       -4.10180
H          9.13630        5.11250        0.22780
H          9.25680        2.51900        4.14400
H          9.90060        3.51340        5.46520
H         11.39490        1.23150        4.07840
H         10.65300        1.15240        5.68060
H         12.03110        2.22040        5.39660
H         12.93600        8.76000       -7.42060
H         13.77910        7.46990       -8.29920
H         11.63770        6.20120       -8.47640
H         11.47450        7.81060       -9.18710
H         10.80240        7.47790       -7.58570
H         15.60610        6.12540       -2.67380
H         16.84770        5.64320       -0.43600
