113

C         -1.61330       -0.63660        7.86630
C         -2.17950       -1.75620        7.32800
F         -2.65390       -2.72130        8.13010
C         -2.28000       -1.93230        5.93160
F         -2.84130       -3.05670        5.46250
C         -1.81010       -0.98280        5.06140
C         -1.21570        0.18590        5.59490
N         -0.75300        1.13390        4.76270
C         -0.20190        2.20990        5.26720
C          0.31770        3.18930        4.25580
C          1.50290        2.58010        3.50450
C         -0.11310        2.39060        6.68000
N         -0.56860        1.47820        7.50260
C         -1.12060        0.35820        7.00040
C          0.49500        3.59980        7.32570
C          2.02330        3.53080        7.30960
C         -1.88860       -1.15100        3.59740
C         -3.01830       -0.82720        2.89050
F         -4.10100       -0.36030        3.53300
C         -3.07650       -0.95750        1.49030
F         -4.22770       -0.64630        0.87880
C         -2.00570       -1.42830        0.76840
C         -0.83000       -1.78690        1.47490
N          0.22460       -2.28700        0.80550
C          1.29240       -2.64630        1.47160
C          2.34910       -3.36250        0.68880
C          2.08970       -4.87060        0.76300
C          1.37750       -2.42660        2.87990
N          0.36300       -1.93760        3.54580
C         -0.76800       -1.63440        2.88300
C          2.62770       -2.66040        3.67210
C          3.51970       -1.41780        3.60330
C         -2.01940       -1.49050       -0.69700
C         -1.70000       -2.62740       -1.40050
F         -1.50140       -3.79130       -0.76460
C         -1.55730       -2.61030       -2.80230
F         -1.15210       -3.73860       -3.40920
C         -1.77000       -1.46770       -3.53040
C         -2.18470       -0.29980       -2.83970
N         -2.44850        0.82020       -3.53220
C         -2.74990        1.91660       -2.88350
C         -3.07400        3.10460       -3.73780
C         -4.58250        3.35080       -3.80140
C         -2.75640        1.93700       -1.45740
N         -2.52130        0.84460       -0.77360
C         -2.27360       -0.30180       -1.42740
C         -3.03180        3.15820       -0.62980
C         -4.36380        3.00810        0.10920
C         -1.33160       -1.29180       -4.92370
N         -2.06530       -1.58760       -5.94190
C         -1.54940       -1.29000       -7.16200
C         -2.12570       -1.54920       -8.37880
S         -1.15510       -0.96480       -9.65890
C          0.04030       -0.35490       -8.59940
C         -0.28450       -0.60180       -7.28990
N          0.46780       -0.30470       -6.20160
C         -0.01030       -0.68810       -5.05580
C          0.79400       -0.57190       -3.82880
N          0.45370        0.27510       -2.89980
C          1.20270        0.27720       -1.77260
C          0.98560        1.02450       -0.64250
S          2.21820        0.76540        0.50980
C          3.05530       -0.34020       -0.48200
C          2.39030       -0.54070       -1.66820
N          2.70030       -1.43860       -2.62710
C          1.89930       -1.49340       -3.65590
C          2.09960       -2.53660       -4.65340
N          1.04610       -2.90070       -5.34030
C          1.23790       -3.82890       -6.29460
C          0.28800       -4.33930       -7.14860
S          0.97610       -5.47460       -8.21580
C          2.54090       -5.31040       -7.55030
C          2.55100       -4.39660       -6.52600
N          3.61480       -4.02400       -5.77170
C          3.38850       -3.12300       -4.86870
H         -1.53990       -0.50560        8.93320
H         -0.48230        3.38680        3.53950
H          0.60820        4.12820        4.72350
H          2.33480        2.39180        4.17990
H          1.20290        1.63600        3.05750
H          1.84110        3.25030        2.71850
H          0.15080        3.62380        8.36020
H          0.15650        4.50820        6.82420
H          2.43840        4.39080        7.82930
H          2.40680        3.52450        6.29270
H          2.35980        2.62720        7.81190
H          2.28630       -3.04740       -0.35260
H          3.34430       -3.13600        1.07030
H          2.12070       -5.22290        1.79220
H          2.84130       -5.40520        0.18780
H          1.10930       -5.09590        0.35130
H          3.16790       -3.53110        3.30230
H          2.34110       -2.83490        4.70960
H          2.98620       -0.55780        4.00070
H          4.42230       -1.57140        4.18920
H          3.80340       -1.19730        2.57650
H         -2.56610        3.99400       -3.36040
H         -2.70270        2.89140       -4.74080
H         -4.79520        4.18360       -4.46730
H         -5.08770        2.46590       -4.18050
H         -4.98380        3.58390       -2.81880
H         -2.23590        3.25230        0.11290
H         -3.04190        4.05650       -1.24510
H         -5.18970        2.92460       -0.59340
H         -4.34750        2.11100        0.72080
H         -4.53790        3.86970        0.74910
H         -3.05370       -2.04430       -8.58010
H          0.91440        0.12820       -8.98500
H          0.17180        1.68720       -0.43190
H          3.96790       -0.79310       -0.15370
H         -0.75460       -4.09870       -7.19340
H          3.36230       -5.87730       -7.93750
H          4.21960       -2.80750       -4.25450
