238

C          0.38210        5.71280      -10.32380
C          1.31420        4.93540       -9.73600
C          1.55720        5.29720       -8.37930
C          2.41600        4.68590       -7.45560
C          3.11380        3.44280       -7.74670
S          4.82180        3.24940       -7.49680
C          4.77340        1.57140       -7.92730
C          6.01110        0.74300       -7.91890
C          6.40130        0.32110       -6.50080
C          3.49740        1.19590       -8.22590
Cl         3.03650       -0.40210       -8.65630
C          2.55730        2.25770       -8.13830
Cl         0.88440        2.05070       -8.44800
C          2.49060        5.25560       -6.19270
C          1.69590        6.35380       -5.78690
C          0.81880        6.95350       -6.70570
C         -0.03820        8.06200       -6.31730
S         -1.11050        7.93270       -4.95340
C         -1.72710        9.53220       -5.18600
C         -2.80290       10.07970       -4.31450
C         -4.18530        9.68810       -4.84220
C         -1.13350       10.11570       -6.26490
C         -0.17380        9.28760       -6.90710
Cl         0.76820        9.83090       -8.23130
Cl        -1.48640       11.70500       -6.80650
C          0.78100        6.41530       -7.98760
S         -0.25340        6.94000       -9.28530
C          1.89290        6.66830       -4.41710
C          2.77850        5.84110       -3.79590
S          3.46470        4.65450       -4.88830
C          3.13760        5.77140       -2.41900
C          3.96600        4.84260       -1.86420
C          4.06240        4.93770       -0.45810
C          4.79710        4.10820        0.40620
C          5.63230        3.04270       -0.11950
S          5.43540        1.40230        0.42920
C          6.61880        0.80580       -0.67980
C          6.92220       -0.64830       -0.77900
C          6.08450       -1.30550       -1.87890
C          7.12830        1.82730       -1.42570
Cl         8.32020        1.61770       -2.64300
C          6.57670        3.09700       -1.10830
Cl         7.11870        4.54770       -1.85140
C          4.58600        4.28770        1.76440
C          3.69800        5.25660        2.29380
C          3.05210        6.15990        1.42740
C          2.21190        7.22080        1.94910
S          0.62490        7.53080        1.31070
C          0.35710        8.84730        2.40190
C         -0.90260        9.63860        2.34710
C         -0.95080       10.50470        1.08680
C          1.44600        9.02990        3.20130
C          2.49640        8.10600        2.95370
Cl         3.99610        8.17510        3.78480
Cl         1.56360       10.25060        4.40220
C          3.23310        5.96010        0.06330
S          2.43750        6.83720       -1.21870
C          3.48640        5.06790        3.68470
C          4.20920        4.03750        4.20870
S          5.26010        3.29060        3.01450
C          4.02900        3.32220        5.43040
C          4.73440        2.21150        5.79260
C          4.06590        1.39990        6.73640
C          4.38880        0.07880        7.08560
C          5.55340       -0.58420        6.51250
S          6.79070       -1.29470        7.50010
C          7.68220       -1.84320        6.12130
C          8.93200       -2.63720        6.27590
C          8.61070       -4.12160        6.46720
C          7.03440       -1.50080        4.97240
Cl         7.60560       -1.87530        3.39990
C          5.82610       -0.78580        5.18810
Cl         4.79610       -0.30170        3.89970
C          3.44930       -0.62360        7.82170
C          2.22690       -0.04900        8.24630
C          1.92390        1.28960        7.93630
C          0.60950        1.82040        8.27610
S          0.09180        1.94880        9.92940
C         -1.48780        2.49790        9.47330
C         -2.52240        2.78900       10.50350
C         -2.91040        1.52570       11.27300
C         -1.58990        2.56560        8.11680
C         -0.40290        2.18070        7.43400
Cl        -0.30510        2.09970        5.72450
Cl        -3.00380        3.05860        7.28070
C          2.84070        1.97830        7.15820
S          2.58450        3.53080        6.40490
C          1.29860       -1.03290        8.66230
C          1.75050       -2.31270        8.49520
S          3.44340       -2.35370        8.03210
C          0.91400       -3.44340        8.23890
C         -0.45330       -3.43740        8.23250
C         -1.01170       -4.36930        7.32570
C         -2.33860       -4.40890        6.86140
C         -3.35330       -3.51280        7.40010
S         -4.84220       -4.12190        8.05470
C         -5.42720       -2.53180        8.41200
C         -6.78050       -2.32290        8.99610
C         -7.86230       -2.43900        7.91980
C         -4.51530       -1.59570        8.02650
Cl        -4.73740        0.09720        8.20140
C         -3.33700       -2.14660        7.45350
Cl        -2.07760       -1.15330        6.82730
C         -2.59140       -5.21000        5.75740
C         -1.58880       -5.98580        5.12900
C         -0.29300       -6.05240        5.67500
C          0.70540       -6.92620        5.09220
S          2.32710       -6.40180        4.74860
C          2.78010       -7.95170        4.12800
C          4.13900       -8.19190        3.57000
C          4.20890       -7.77400        2.09910
C          1.72660       -8.81520        4.18780
C          0.55010       -8.24000        4.73490
Cl        -0.88350       -9.14810        4.98910
Cl         1.79740      -10.44970        3.66930
C         -0.02050       -5.18370        6.72290
S          1.56520       -4.79420        7.32510
C         -1.99710       -6.43290        3.84860
C         -3.25800       -6.04970        3.50720
S         -4.06050       -5.19120        4.81510
C         -3.81050       -6.07950        2.18680
S         -2.71810       -5.76440        0.86970
C         -4.02900       -5.73280       -0.27290
C         -5.23080       -6.00500        0.35080
C         -5.10930       -6.17460        1.74540
C         -6.28580       -6.39730        2.63780
C         -7.48230       -6.91990        1.83060
C         -7.24390       -8.27270        1.39010
N         -7.04940       -9.34270        1.03830
C         -7.73040       -6.00210        0.61540
O         -7.93810       -4.70590        1.13480
C         -8.56040       -3.80450        0.25610
C         -6.54640       -6.09160       -0.35920
C         -3.78610       -5.35970       -1.63160
C         -2.69660       -4.65470       -1.99740
C         -2.40730       -4.16660       -3.30830
C         -2.88240       -4.56170       -4.52440
C         -2.36660       -3.80830       -5.60960
C         -2.66500       -3.93840       -6.97650
C         -3.57320       -4.96300       -7.46550
S         -3.31560       -6.64720       -7.11480
C         -4.69980       -7.13280       -8.03460
C         -5.10870       -8.56210       -8.11530
C         -5.86880       -8.98670       -6.85660
C         -5.32050       -6.04170       -8.56430
Cl        -6.73820       -6.11990       -9.52800
C         -4.68180       -4.81150       -8.25050
Cl        -5.30930       -3.29630       -8.74860
C         -2.04550       -3.04850       -7.84620
C         -1.18930       -2.01190       -7.40460
C         -0.93030       -1.84850       -6.03590
C         -0.17680       -0.70450       -5.54270
S          1.19890       -0.85460       -4.49380
C          1.36310        0.86340       -4.32960
C          2.42390        1.45230       -3.46520
C          3.82140        1.18450       -4.02090
C          0.40950        1.50000       -5.06580
C         -0.46540        0.61500       -5.75250
Cl        -1.80610        1.16390       -6.67260
Cl         0.22760        3.20710       -5.14790
C         -1.49170       -2.78180       -5.17380
S         -1.29080       -2.81820       -3.44820
C         -0.65020       -1.27330       -8.49690
C         -1.07280       -1.72610       -9.69370
S         -2.15760       -3.06950       -9.58320
H          0.01500        5.65410      -11.32990
H          1.82910        4.13550      -10.23600
H          5.83960       -0.14420       -8.53110
H          6.82810        1.31770       -8.35970
H          5.61980       -0.29300       -6.06150
H          6.55310        1.19570       -5.87310
H          7.32310       -0.25380       -6.52630
H         -2.71550       11.16760       -4.29160
H         -2.67810        9.69540       -3.30070
H         -4.32760       10.07480       -5.84810
H         -4.28630        8.60580       -4.86810
H         -4.96010       10.09630       -4.19890
H          1.38330        7.46190       -3.90140
H          4.46290        4.09180       -2.45030
H          7.98280       -0.77400       -1.00630
H          6.71070       -1.12560        0.17880
H          5.02440       -1.19140       -1.66600
H          6.29990       -0.84550       -2.84000
H          6.31570       -2.36550       -1.93950
H         -0.95600       10.27060        3.23480
H         -1.75830        8.96000        2.35030
H         -1.87780       11.07100        1.05760
H         -0.89290        9.87910        0.19900
H         -0.11630       11.20130        1.07550
H          2.76930        5.62430        4.26120
H          5.66770        1.94390        5.33170
H          9.49030       -2.27200        7.13940
H          9.54430       -2.50710        5.38150
H          9.52940       -4.69100        6.57800
H          8.00070       -4.26340        7.35610
H          8.06490       -4.50210        5.60760
H         -3.39890        3.20420       10.00340
H         -2.13850        3.53430       11.20450
H         -3.66880        1.75860       12.01550
H         -3.30890        0.77740       10.59260
H         -2.04130        1.11060       11.77840
H          0.28670       -0.79890        8.93600
H         -1.04020       -2.72740        8.78270
H         -6.81600       -1.33060        9.44900
H         -6.96090       -3.06890        9.77210
H         -7.70610       -1.69160        7.14600
H         -7.83220       -3.42470        7.46140
H         -8.84430       -2.28650        8.35910
H          4.37130       -9.25470        3.65930
H          4.87120       -7.62230        4.14470
H          5.20480       -7.95900        1.70580
H          3.49130       -8.34100        1.51160
H          3.98320       -6.71530        1.99690
H         -1.35120       -6.95670        3.16750
H         -6.57450       -5.44470        3.09090
H         -6.03310       -7.09390        3.44070
H         -8.37490       -6.91670        2.46610
H         -8.64240       -6.33410        0.08820
H         -9.50290       -4.21300       -0.12920
H         -7.91750       -3.53890       -0.59010
H         -8.76530       -2.90870        0.83900
H         -6.60830       -7.04800       -0.88920
H         -6.62480       -5.29650       -1.10320
H         -4.54980       -5.60760       -2.35500
H         -1.98860       -4.36550       -1.23080
H         -3.56710       -5.38030       -4.64820
H         -5.74660       -8.69260       -8.99110
H         -4.22220       -9.18820       -8.23090
H         -6.76130       -8.37840       -6.73240
H         -6.16580      -10.02900       -6.93330
H         -5.23940       -8.86700       -5.97780
H          2.25230        2.52740       -3.39290
H          2.34770        1.02330       -2.46290
H          3.93210        1.64650       -4.99810
H          3.98550        0.11380       -4.11590
H          4.57660        1.59430       -3.35500
H          0.03660       -0.45780       -8.37460
H         -0.81630       -1.35500      -10.66670
