
  xtb     03012215563D
 energy: -452.030763409081 gnorm: 0.000313493586 xtb: 6.4.1 (unknown)
225250  0     0  0            999 V2000
    2.1396   -6.5658   10.4697 C   0  0  0  0  0  0  0  0  0  0  0  0
    2.4819   -7.1375    9.2976 C   0  0  0  0  0  0  0  0  0  0  0  0
    1.6620   -6.7087    8.2132 C   0  0  0  0  0  0  0  0  0  0  0  0
    1.7698   -7.0524    6.8573 C   0  0  0  0  0  0  0  0  0  0  0  0
    2.8494   -7.8987    6.3736 C   0  0  0  0  0  0  0  0  0  0  0  0
    2.5398   -9.3395    5.4543 S   0  0  0  0  0  0  0  0  0  0  0  0
    4.2268   -9.6848    5.2854 C   0  0  0  0  0  0  0  0  0  0  0  0
    4.6968  -10.8570    4.4974 C   0  0  0  0  0  0  0  0  0  0  0  0
    4.7475  -10.5227    3.0045 C   0  0  0  0  0  0  0  0  0  0  0  0
    4.9729   -8.7222    5.8980 C   0  0  0  0  0  0  0  0  0  0  0  0
    6.6890   -8.7163    5.9317 Cl  0  0  0  0  0  0  0  0  0  0  0  0
    4.1951   -7.7098    6.5210 C   0  0  0  0  0  0  0  0  0  0  0  0
    4.8937   -6.3530    7.3075 Cl  0  0  0  0  0  0  0  0  0  0  0  0
    0.8303   -6.5101    5.9910 C   0  0  0  0  0  0  0  0  0  0  0  0
   -0.1786   -5.6166    6.4225 C   0  0  0  0  0  0  0  0  0  0  0  0
   -0.2809   -5.2550    7.7770 C   0  0  0  0  0  0  0  0  0  0  0  0
   -1.2981   -4.3189    8.2277 C   0  0  0  0  0  0  0  0  0  0  0  0
   -1.5115   -2.7726    7.4534 S   0  0  0  0  0  0  0  0  0  0  0  0
   -2.8071   -2.3233    8.5106 C   0  0  0  0  0  0  0  0  0  0  0  0
   -3.4682   -0.9949    8.3890 C   0  0  0  0  0  0  0  0  0  0  0  0
   -2.5554    0.1272    8.8869 C   0  0  0  0  0  0  0  0  0  0  0  0
   -3.0439   -3.3191    9.4089 C   0  0  0  0  0  0  0  0  0  0  0  0
   -2.1974   -4.4515    9.2487 C   0  0  0  0  0  0  0  0  0  0  0  0
   -2.3827   -5.8654   10.1978 Cl  0  0  0  0  0  0  0  0  0  0  0  0
   -4.2546   -3.2494   10.6230 Cl  0  0  0  0  0  0  0  0  0  0  0  0
    0.6501   -5.8152    8.6455 C   0  0  0  0  0  0  0  0  0  0  0  0
    0.7938   -5.4874   10.3486 S   0  0  0  0  0  0  0  0  0  0  0  0
   -0.9844   -5.1815    5.3443 C   0  0  0  0  0  0  0  0  0  0  0  0
   -0.6054   -5.6889    4.1363 C   0  0  0  0  0  0  0  0  0  0  0  0
    0.7646   -6.7642    4.2683 S   0  0  0  0  0  0  0  0  0  0  0  0
   -1.2177   -5.3428    2.8905 C   0  0  0  0  0  0  0  0  0  0  0  0
   -1.9156   -4.1904    2.6855 C   0  0  0  0  0  0  0  0  0  0  0  0
   -2.4542   -4.0784    1.3847 C   0  0  0  0  0  0  0  0  0  0  0  0
   -3.2412   -3.0294    0.8819 C   0  0  0  0  0  0  0  0  0  0  0  0
   -3.4418   -1.8316    1.6818 C   0  0  0  0  0  0  0  0  0  0  0  0
   -2.0591   -0.9958    2.3289 S   0  0  0  0  0  0  0  0  0  0  0  0
   -3.0442    0.1367    3.1896 C   0  0  0  0  0  0  0  0  0  0  0  0
   -2.4211    1.1738    4.0584 C   0  0  0  0  0  0  0  0  0  0  0  0
   -1.3334    0.5793    4.9518 C   0  0  0  0  0  0  0  0  0  0  0  0
   -4.3633   -0.1144    2.9549 C   0  0  0  0  0  0  0  0  0  0  0  0
   -5.6547    0.7725    3.6582 Cl  0  0  0  0  0  0  0  0  0  0  0  0
   -4.5931   -1.2186    2.0869 C   0  0  0  0  0  0  0  0  0  0  0  0
   -6.1677   -1.7587    1.6741 Cl  0  0  0  0  0  0  0  0  0  0  0  0
   -3.7386   -3.1870   -0.4012 C   0  0  0  0  0  0  0  0  0  0  0  0
   -3.4350   -4.3061   -1.2188 C   0  0  0  0  0  0  0  0  0  0  0  0
   -2.6462   -5.3550   -0.7083 C   0  0  0  0  0  0  0  0  0  0  0  0
   -2.3653   -6.5373   -1.5028 C   0  0  0  0  0  0  0  0  0  0  0  0
   -0.7470   -7.1436   -1.6936 S   0  0  0  0  0  0  0  0  0  0  0  0
   -1.2739   -8.4590   -2.6854 C   0  0  0  0  0  0  0  0  0  0  0  0
   -0.3014   -9.4126   -3.2865 C   0  0  0  0  0  0  0  0  0  0  0  0
    0.2055   -8.8978   -4.6361 C   0  0  0  0  0  0  0  0  0  0  0  0
   -2.6267   -8.4175   -2.8512 C   0  0  0  0  0  0  0  0  0  0  0  0
   -3.2501   -7.3329   -2.1790 C   0  0  0  0  0  0  0  0  0  0  0  0
   -4.9533   -7.1170   -2.1616 Cl  0  0  0  0  0  0  0  0  0  0  0  0
   -3.5130   -9.5631   -3.7716 Cl  0  0  0  0  0  0  0  0  0  0  0  0
   -2.1637   -5.2104    0.5879 C   0  0  0  0  0  0  0  0  0  0  0  0
   -1.1847   -6.3573    1.4655 S   0  0  0  0  0  0  0  0  0  0  0  0
   -3.9360   -4.1414   -2.5372 C   0  0  0  0  0  0  0  0  0  0  0  0
   -4.6241   -2.9778   -2.7131 C   0  0  0  0  0  0  0  0  0  0  0  0
   -4.7028   -2.0231   -1.2468 S   0  0  0  0  0  0  0  0  0  0  0  0
   -5.1395   -2.3776   -3.9042 C   0  0  0  0  0  0  0  0  0  0  0  0
   -4.7649   -2.5856   -5.1998 C   0  0  0  0  0  0  0  0  0  0  0  0
   -5.2367   -1.5844   -6.0886 C   0  0  0  0  0  0  0  0  0  0  0  0
   -4.8211   -1.3527   -7.4185 C   0  0  0  0  0  0  0  0  0  0  0  0
   -4.1221   -2.3836   -8.1560 C   0  0  0  0  0  0  0  0  0  0  0  0
   -2.7113   -2.0564   -9.1202 S   0  0  0  0  0  0  0  0  0  0  0  0
   -2.5572   -3.7106   -9.5995 C   0  0  0  0  0  0  0  0  0  0  0  0
   -1.4272   -4.1652  -10.4550 C   0  0  0  0  0  0  0  0  0  0  0  0
   -0.2202   -4.5611   -9.6005 C   0  0  0  0  0  0  0  0  0  0  0  0
   -3.5471   -4.4630   -9.0386 C   0  0  0  0  0  0  0  0  0  0  0  0
   -3.7225   -6.1516   -9.2898 Cl  0  0  0  0  0  0  0  0  0  0  0  0
   -4.4379   -3.7170   -8.2242 C   0  0  0  0  0  0  0  0  0  0  0  0
   -5.8150   -4.4285   -7.4875 Cl  0  0  0  0  0  0  0  0  0  0  0  0
   -5.0383   -0.0718   -7.9169 C   0  0  0  0  0  0  0  0  0  0  0  0
   -5.8073    0.8983   -7.2257 C   0  0  0  0  0  0  0  0  0  0  0  0
   -6.3762    0.6015   -5.9760 C   0  0  0  0  0  0  0  0  0  0  0  0
   -7.1429    1.5642   -5.2042 C   0  0  0  0  0  0  0  0  0  0  0  0
   -6.5555    3.1697   -4.8760 S   0  0  0  0  0  0  0  0  0  0  0  0
   -7.9198    3.5540   -3.8812 C   0  0  0  0  0  0  0  0  0  0  0  0
   -8.0777    4.9061   -3.2783 C   0  0  0  0  0  0  0  0  0  0  0  0
   -8.7182    5.8769   -4.2732 C   0  0  0  0  0  0  0  0  0  0  0  0
   -8.7733    2.4935   -3.8202 C   0  0  0  0  0  0  0  0  0  0  0  0
   -8.3297    1.3609   -4.5557 C   0  0  0  0  0  0  0  0  0  0  0  0
   -9.2438   -0.0842   -4.6615 Cl  0  0  0  0  0  0  0  0  0  0  0  0
  -10.2402    2.4965   -2.9319 Cl  0  0  0  0  0  0  0  0  0  0  0  0
   -6.0191   -0.6169   -5.4151 C   0  0  0  0  0  0  0  0  0  0  0  0
   -6.2197   -1.0110   -3.7362 S   0  0  0  0  0  0  0  0  0  0  0  0
   -5.7103    2.1740   -7.8215 C   0  0  0  0  0  0  0  0  0  0  0  0
   -4.8216    2.2299   -8.8570 C   0  0  0  0  0  0  0  0  0  0  0  0
   -4.2621    0.6291   -9.3188 S   0  0  0  0  0  0  0  0  0  0  0  0
   -4.0691    3.4042   -9.1748 C   0  0  0  0  0  0  0  0  0  0  0  0
   -4.1008    4.6379   -7.9264 S   0  0  0  0  0  0  0  0  0  0  0  0
   -2.5803    5.3071   -8.4388 C   0  0  0  0  0  0  0  0  0  0  0  0
   -2.2093    4.7123   -9.6467 C   0  0  0  0  0  0  0  0  0  0  0  0
   -3.0317    3.6254  -10.0343 C   0  0  0  0  0  0  0  0  0  0  0  0
   -1.0471    5.0429  -10.3843 N   0  0  0  0  0  4  0  0  0  0  0  0
   -0.3486    5.9596   -9.9893 O   0  0  0  0  0  1  0  0  0  0  0  0
   -0.8169    4.3885  -11.3842 O   0  0  0  0  0  0  0  0  0  0  0  0
   -1.7923    6.0319   -7.5024 C   0  0  0  0  0  0  0  0  0  0  0  0
   -2.1719    6.0615   -6.1995 C   0  0  0  0  0  0  0  0  0  0  0  0
   -1.3528    6.1928   -5.0505 C   0  0  0  0  0  0  0  0  0  0  0  0
   -1.7080    5.6220   -3.8516 C   0  0  0  0  0  0  0  0  0  0  0  0
   -0.6415    5.5109   -2.9382 C   0  0  0  0  0  0  0  0  0  0  0  0
   -0.6186    4.7952   -1.7255 C   0  0  0  0  0  0  0  0  0  0  0  0
   -1.7789    4.0791   -1.2209 C   0  0  0  0  0  0  0  0  0  0  0  0
   -2.6424    2.9265   -2.2025 S   0  0  0  0  0  0  0  0  0  0  0  0
   -3.6801    2.4667   -0.8974 C   0  0  0  0  0  0  0  0  0  0  0  0
   -4.7363    1.4321   -1.0696 C   0  0  0  0  0  0  0  0  0  0  0  0
   -6.1342    2.0479   -1.1332 C   0  0  0  0  0  0  0  0  0  0  0  0
   -3.3801    3.1887    0.2193 C   0  0  0  0  0  0  0  0  0  0  0  0
   -4.2113    3.0232    1.7091 Cl  0  0  0  0  0  0  0  0  0  0  0  0
   -2.3004    4.0943    0.0440 C   0  0  0  0  0  0  0  0  0  0  0  0
   -1.7770    5.1441    1.2926 Cl  0  0  0  0  0  0  0  0  0  0  0  0
    0.6044    4.7120   -1.0752 C   0  0  0  0  0  0  0  0  0  0  0  0
    1.7749    5.3611   -1.5442 C   0  0  0  0  0  0  0  0  0  0  0  0
    1.7422    6.1045   -2.7391 C   0  0  0  0  0  0  0  0  0  0  0  0
    2.9329    6.7512   -3.2635 C   0  0  0  0  0  0  0  0  0  0  0  0
    4.4314    5.8876   -3.4493 S   0  0  0  0  0  0  0  0  0  0  0  0
    5.2430    7.2720   -4.0967 C   0  0  0  0  0  0  0  0  0  0  0  0
    6.6891    7.2127   -4.4443 C   0  0  0  0  0  0  0  0  0  0  0  0
    7.5528    7.1279   -3.1838 C   0  0  0  0  0  0  0  0  0  0  0  0
    4.3911    8.3340   -4.1568 C   0  0  0  0  0  0  0  0  0  0  0  0
    3.0790    8.0408   -3.6952 C   0  0  0  0  0  0  0  0  0  0  0  0
    1.8489    9.2300   -3.6136 Cl  0  0  0  0  0  0  0  0  0  0  0  0
    4.8324    9.8891   -4.7318 Cl  0  0  0  0  0  0  0  0  0  0  0  0
    0.5382    6.1275   -3.4318 C   0  0  0  0  0  0  0  0  0  0  0  0
    0.3033    6.7529   -5.0420 S   0  0  0  0  0  0  0  0  0  0  0  0
    2.8937    5.0709   -0.7285 C   0  0  0  0  0  0  0  0  0  0  0  0
    2.6252    4.1825    0.2717 C   0  0  0  0  0  0  0  0  0  0  0  0
    0.9412    3.7155    0.3126 S   0  0  0  0  0  0  0  0  0  0  0  0
    3.5712    3.5875    1.1566 C   0  0  0  0  0  0  0  0  0  0  0  0
    3.3958    2.5220    1.9884 C   0  0  0  0  0  0  0  0  0  0  0  0
    4.5917    2.0993    2.6229 C   0  0  0  0  0  0  0  0  0  0  0  0
    4.7818    1.0211    3.5032 C   0  0  0  0  0  0  0  0  0  0  0  0
    3.7208    0.0858    3.8383 C   0  0  0  0  0  0  0  0  0  0  0  0
    3.4261   -0.3559    5.4940 S   0  0  0  0  0  0  0  0  0  0  0  0
    2.2427   -1.5365    5.0535 C   0  0  0  0  0  0  0  0  0  0  0  0
    1.6484   -2.4241    6.0874 C   0  0  0  0  0  0  0  0  0  0  0  0
    2.6789   -3.4583    6.5454 C   0  0  0  0  0  0  0  0  0  0  0  0
    2.0792   -1.5635    3.7011 C   0  0  0  0  0  0  0  0  0  0  0  0
    0.9964   -2.6264    2.8923 Cl  0  0  0  0  0  0  0  0  0  0  0  0
    2.9092   -0.6395    3.0083 C   0  0  0  0  0  0  0  0  0  0  0  0
    2.9404   -0.5483    1.2948 Cl  0  0  0  0  0  0  0  0  0  0  0  0
    6.0644    0.8472    4.0164 C   0  0  0  0  0  0  0  0  0  0  0  0
    7.1551    1.6817    3.6777 C   0  0  0  0  0  0  0  0  0  0  0  0
    6.9637    2.7618    2.8019 C   0  0  0  0  0  0  0  0  0  0  0  0
    8.0461    3.6718    2.4668 C   0  0  0  0  0  0  0  0  0  0  0  0
    8.4408    4.0516    0.8170 S   0  0  0  0  0  0  0  0  0  0  0  0
    9.7146    5.1234    1.2867 C   0  0  0  0  0  0  0  0  0  0  0  0
   10.4898    5.8917    0.2742 C   0  0  0  0  0  0  0  0  0  0  0  0
    9.8233    7.2414   -0.0034 C   0  0  0  0  0  0  0  0  0  0  0  0
    9.8079    5.1837    2.6453 C   0  0  0  0  0  0  0  0  0  0  0  0
    8.8669    4.3591    3.3180 C   0  0  0  0  0  0  0  0  0  0  0  0
    8.7358    4.3159    5.0290 Cl  0  0  0  0  0  0  0  0  0  0  0  0
   10.9494    6.1533    3.4828 Cl  0  0  0  0  0  0  0  0  0  0  0  0
    5.6893    2.9259    2.2769 C   0  0  0  0  0  0  0  0  0  0  0  0
    5.2244    4.1679    1.1524 S   0  0  0  0  0  0  0  0  0  0  0  0
    8.3701    1.2294    4.2701 C   0  0  0  0  0  0  0  0  0  0  0  0
    8.2028    0.1257    5.0261 C   0  0  0  0  0  0  0  0  0  0  0  0
    6.5716   -0.4448    5.0696 S   0  0  0  0  0  0  0  0  0  0  0  0
    2.5922   -6.7113   11.4310 H   0  0  0  0  0  0  0  0  0  0  0  0
    3.2815   -7.8466    9.1901 H   0  0  0  0  0  0  0  0  0  0  0  0
    5.6929  -11.1372    4.8449 H   0  0  0  0  0  0  0  0  0  0  0  0
    4.0198  -11.6976    4.6582 H   0  0  0  0  0  0  0  0  0  0  0  0
    5.0908  -11.3856    2.4406 H   0  0  0  0  0  0  0  0  0  0  0  0
    3.7598  -10.2406    2.6477 H   0  0  0  0  0  0  0  0  0  0  0  0
    5.4301   -9.6956    2.8268 H   0  0  0  0  0  0  0  0  0  0  0  0
   -4.3875   -1.0118    8.9761 H   0  0  0  0  0  0  0  0  0  0  0  0
   -3.7283   -0.8119    7.3437 H   0  0  0  0  0  0  0  0  0  0  0  0
   -2.3070   -0.0257    9.9341 H   0  0  0  0  0  0  0  0  0  0  0  0
   -3.0549    1.0866    8.7843 H   0  0  0  0  0  0  0  0  0  0  0  0
   -1.6334    0.1491    8.3102 H   0  0  0  0  0  0  0  0  0  0  0  0
   -1.8321   -4.5339    5.4627 H   0  0  0  0  0  0  0  0  0  0  0  0
   -2.0375   -3.4405    3.4437 H   0  0  0  0  0  0  0  0  0  0  0  0
   -3.2055    1.6312    4.6643 H   0  0  0  0  0  0  0  0  0  0  0  0
   -1.9814    1.9558    3.4324 H   0  0  0  0  0  0  0  0  0  0  0  0
   -0.9215    1.3476    5.6006 H   0  0  0  0  0  0  0  0  0  0  0  0
   -0.5284    0.1687    4.3462 H   0  0  0  0  0  0  0  0  0  0  0  0
   -1.7361   -0.2208    5.5691 H   0  0  0  0  0  0  0  0  0  0  0  0
    0.5417   -9.5452   -2.6069 H   0  0  0  0  0  0  0  0  0  0  0  0
   -0.7954  -10.3759   -3.4264 H   0  0  0  0  0  0  0  0  0  0  0  0
    0.6987   -7.9367   -4.5120 H   0  0  0  0  0  0  0  0  0  0  0  0
   -0.6237   -8.7772   -5.3285 H   0  0  0  0  0  0  0  0  0  0  0  0
    0.9147   -9.6025   -5.0616 H   0  0  0  0  0  0  0  0  0  0  0  0
   -3.7747   -4.8505   -3.3275 H   0  0  0  0  0  0  0  0  0  0  0  0
   -4.0847   -3.3642   -5.4914 H   0  0  0  0  0  0  0  0  0  0  0  0
   -1.7548   -5.0248  -11.0428 H   0  0  0  0  0  0  0  0  0  0  0  0
   -1.1434   -3.3613  -11.1357 H   0  0  0  0  0  0  0  0  0  0  0  0
    0.1193   -3.7128   -9.0112 H   0  0  0  0  0  0  0  0  0  0  0  0
   -0.4856   -5.3708   -8.9254 H   0  0  0  0  0  0  0  0  0  0  0  0
    0.5948   -4.8921  -10.2382 H   0  0  0  0  0  0  0  0  0  0  0  0
   -8.7084    4.8204   -2.3918 H   0  0  0  0  0  0  0  0  0  0  0  0
   -7.1005    5.2883   -2.9773 H   0  0  0  0  0  0  0  0  0  0  0  0
   -8.8314    6.8567   -3.8175 H   0  0  0  0  0  0  0  0  0  0  0  0
   -8.0964    5.9738   -5.1602 H   0  0  0  0  0  0  0  0  0  0  0  0
   -9.6989    5.5167   -4.5727 H   0  0  0  0  0  0  0  0  0  0  0  0
   -6.1829    3.0525   -7.4222 H   0  0  0  0  0  0  0  0  0  0  0  0
   -2.8021    3.0070  -10.8835 H   0  0  0  0  0  0  0  0  0  0  0  0
   -0.8155    6.3659   -7.8212 H   0  0  0  0  0  0  0  0  0  0  0  0
   -3.1775    5.7320   -5.9599 H   0  0  0  0  0  0  0  0  0  0  0  0
   -2.6895    5.2237   -3.6705 H   0  0  0  0  0  0  0  0  0  0  0  0
   -4.5440    0.8739   -1.9864 H   0  0  0  0  0  0  0  0  0  0  0  0
   -4.6908    0.7370   -0.2278 H   0  0  0  0  0  0  0  0  0  0  0  0
   -6.3741    2.5478   -0.1992 H   0  0  0  0  0  0  0  0  0  0  0  0
   -6.8687    1.2676   -1.3114 H   0  0  0  0  0  0  0  0  0  0  0  0
   -6.1923    2.7723   -1.9410 H   0  0  0  0  0  0  0  0  0  0  0  0
    6.9468    8.1079   -5.0120 H   0  0  0  0  0  0  0  0  0  0  0  0
    6.8776    6.3373   -5.0695 H   0  0  0  0  0  0  0  0  0  0  0  0
    7.3027    6.2346   -2.6155 H   0  0  0  0  0  0  0  0  0  0  0  0
    8.6043    7.0874   -3.4542 H   0  0  0  0  0  0  0  0  0  0  0  0
    7.3878    8.0003   -2.5561 H   0  0  0  0  0  0  0  0  0  0  0  0
    3.8776    5.4715   -0.8895 H   0  0  0  0  0  0  0  0  0  0  0  0
    2.4416    2.0487    2.1317 H   0  0  0  0  0  0  0  0  0  0  0  0
    0.7753   -2.9259    5.6682 H   0  0  0  0  0  0  0  0  0  0  0  0
    1.3292   -1.8288    6.9443 H   0  0  0  0  0  0  0  0  0  0  0  0
    2.2682   -4.0720    7.3410 H   0  0  0  0  0  0  0  0  0  0  0  0
    2.9605   -4.1046    5.7179 H   0  0  0  0  0  0  0  0  0  0  0  0
    3.5722   -2.9608    6.9157 H   0  0  0  0  0  0  0  0  0  0  0  0
   11.5012    6.0545    0.6513 H   0  0  0  0  0  0  0  0  0  0  0  0
   10.5472    5.3157   -0.6504 H   0  0  0  0  0  0  0  0  0  0  0  0
   10.3868    7.7896   -0.7533 H   0  0  0  0  0  0  0  0  0  0  0  0
    9.7841    7.8350    0.9062 H   0  0  0  0  0  0  0  0  0  0  0  0
    8.8095    7.0922   -0.3662 H   0  0  0  0  0  0  0  0  0  0  0  0
    9.3192    1.7073    4.1144 H   0  0  0  0  0  0  0  0  0  0  0  0
    8.9481   -0.4133    5.5776 H   0  0  0  0  0  0  0  0  0  0  0  0
  1  2  2  0  0  0  0
  2  3  1  0  0  0  0
  3  4  2  0  0  0  0
  4  5  1  0  0  0  0
  5  6  1  0  0  0  0
  6  7  1  0  0  0  0
  7  8  1  0  0  0  0
  8  9  1  0  0  0  0
  7 10  2  0  0  0  0
 10 11  1  0  0  0  0
 10 12  1  0  0  0  0
 12 13  1  0  0  0  0
  4 14  1  0  0  0  0
 14 15  2  0  0  0  0
 15 16  1  0  0  0  0
 16 17  1  0  0  0  0
 17 18  1  0  0  0  0
 18 19  1  0  0  0  0
 19 20  1  0  0  0  0
 20 21  1  0  0  0  0
 19 22  2  0  0  0  0
 22 23  1  0  0  0  0
 23 24  1  0  0  0  0
 22 25  1  0  0  0  0
 16 26  2  0  0  0  0
 26 27  1  0  0  0  0
 15 28  1  0  0  0  0
 28 29  2  0  0  0  0
 29 30  1  0  0  0  0
 29 31  1  0  0  0  0
 31 32  2  0  0  0  0
 32 33  1  0  0  0  0
 33 34  2  0  0  0  0
 34 35  1  0  0  0  0
 35 36  1  0  0  0  0
 36 37  1  0  0  0  0
 37 38  1  0  0  0  0
 38 39  1  0  0  0  0
 37 40  2  0  0  0  0
 40 41  1  0  0  0  0
 40 42  1  0  0  0  0
 42 43  1  0  0  0  0
 34 44  1  0  0  0  0
 44 45  2  0  0  0  0
 45 46  1  0  0  0  0
 46 47  1  0  0  0  0
 47 48  1  0  0  0  0
 48 49  1  0  0  0  0
 49 50  1  0  0  0  0
 50 51  1  0  0  0  0
 49 52  2  0  0  0  0
 52 53  1  0  0  0  0
 53 54  1  0  0  0  0
 52 55  1  0  0  0  0
 46 56  2  0  0  0  0
 56 57  1  0  0  0  0
 45 58  1  0  0  0  0
 58 59  2  0  0  0  0
 59 60  1  0  0  0  0
 59 61  1  0  0  0  0
 61 62  2  0  0  0  0
 62 63  1  0  0  0  0
 63 64  2  0  0  0  0
 64 65  1  0  0  0  0
 65 66  1  0  0  0  0
 66 67  1  0  0  0  0
 67 68  1  0  0  0  0
 68 69  1  0  0  0  0
 67 70  2  0  0  0  0
 70 71  1  0  0  0  0
 70 72  1  0  0  0  0
 72 73  1  0  0  0  0
 64 74  1  0  0  0  0
 74 75  2  0  0  0  0
 75 76  1  0  0  0  0
 76 77  1  0  0  0  0
 77 78  1  0  0  0  0
 78 79  1  0  0  0  0
 79 80  1  0  0  0  0
 80 81  1  0  0  0  0
 79 82  2  0  0  0  0
 82 83  1  0  0  0  0
 83 84  1  0  0  0  0
 82 85  1  0  0  0  0
 76 86  2  0  0  0  0
 86 87  1  0  0  0  0
 75 88  1  0  0  0  0
 88 89  2  0  0  0  0
 89 90  1  0  0  0  0
 89 91  1  0  0  0  0
 91 92  1  0  0  0  0
 92 93  1  0  0  0  0
 93 94  2  0  0  0  0
 94 95  1  0  0  0  0
 94 96  1  0  0  0  0
 96 97  1  0  0  0  0
 96 98  2  0  0  0  0
 93 99  1  0  0  0  0
 99100  2  0  0  0  0
100101  1  0  0  0  0
101102  2  0  0  0  0
102103  1  0  0  0  0
103104  2  0  0  0  0
104105  1  0  0  0  0
105106  1  0  0  0  0
106107  1  0  0  0  0
107108  1  0  0  0  0
108109  1  0  0  0  0
107110  2  0  0  0  0
110111  1  0  0  0  0
110112  1  0  0  0  0
112113  1  0  0  0  0
104114  1  0  0  0  0
114115  2  0  0  0  0
115116  1  0  0  0  0
116117  1  0  0  0  0
117118  1  0  0  0  0
118119  1  0  0  0  0
119120  1  0  0  0  0
120121  1  0  0  0  0
119122  2  0  0  0  0
122123  1  0  0  0  0
123124  1  0  0  0  0
122125  1  0  0  0  0
116126  2  0  0  0  0
126127  1  0  0  0  0
115128  1  0  0  0  0
128129  2  0  0  0  0
129130  1  0  0  0  0
129131  1  0  0  0  0
131132  2  0  0  0  0
132133  1  0  0  0  0
133134  2  0  0  0  0
134135  1  0  0  0  0
135136  1  0  0  0  0
136137  1  0  0  0  0
137138  1  0  0  0  0
138139  1  0  0  0  0
137140  2  0  0  0  0
140141  1  0  0  0  0
140142  1  0  0  0  0
142143  1  0  0  0  0
134144  1  0  0  0  0
144145  2  0  0  0  0
145146  1  0  0  0  0
146147  1  0  0  0  0
147148  1  0  0  0  0
148149  1  0  0  0  0
149150  1  0  0  0  0
150151  1  0  0  0  0
149152  2  0  0  0  0
152153  1  0  0  0  0
153154  1  0  0  0  0
152155  1  0  0  0  0
146156  2  0  0  0  0
156157  1  0  0  0  0
145158  1  0  0  0  0
158159  2  0  0  0  0
159160  1  0  0  0  0
 27  1  1  0  0  0  0
 57 31  1  0  0  0  0
 87 61  1  0  0  0  0
 95 91  2  0  0  0  0
127101  1  0  0  0  0
157131  1  0  0  0  0
 26  3  1  0  0  0  0
 56 33  1  0  0  0  0
 86 63  1  0  0  0  0
126103  1  0  0  0  0
156133  1  0  0  0  0
 12  5  2  0  0  0  0
 30 14  1  0  0  0  0
 42 35  2  0  0  0  0
 60 44  1  0  0  0  0
 72 65  2  0  0  0  0
 90 74  1  0  0  0  0
112105  2  0  0  0  0
130114  1  0  0  0  0
142135  2  0  0  0  0
160144  1  0  0  0  0
 23 17  2  0  0  0  0
 53 47  2  0  0  0  0
 83 77  2  0  0  0  0
123117  2  0  0  0  0
153147  2  0  0  0  0
  1161  1  0  0  0  0
  2162  1  0  0  0  0
  8163  1  0  0  0  0
  8164  1  0  0  0  0
  9165  1  0  0  0  0
  9166  1  0  0  0  0
  9167  1  0  0  0  0
 20168  1  0  0  0  0
 20169  1  0  0  0  0
 21170  1  0  0  0  0
 21171  1  0  0  0  0
 21172  1  0  0  0  0
 28173  1  0  0  0  0
 32174  1  0  0  0  0
 38175  1  0  0  0  0
 38176  1  0  0  0  0
 39177  1  0  0  0  0
 39178  1  0  0  0  0
 39179  1  0  0  0  0
 50180  1  0  0  0  0
 50181  1  0  0  0  0
 51182  1  0  0  0  0
 51183  1  0  0  0  0
 51184  1  0  0  0  0
 58185  1  0  0  0  0
 62186  1  0  0  0  0
 68187  1  0  0  0  0
 68188  1  0  0  0  0
 69189  1  0  0  0  0
 69190  1  0  0  0  0
 69191  1  0  0  0  0
 80192  1  0  0  0  0
 80193  1  0  0  0  0
 81194  1  0  0  0  0
 81195  1  0  0  0  0
 81196  1  0  0  0  0
 88197  1  0  0  0  0
 95198  1  0  0  0  0
 99199  1  0  0  0  0
100200  1  0  0  0  0
102201  1  0  0  0  0
108202  1  0  0  0  0
108203  1  0  0  0  0
109204  1  0  0  0  0
109205  1  0  0  0  0
109206  1  0  0  0  0
120207  1  0  0  0  0
120208  1  0  0  0  0
121209  1  0  0  0  0
121210  1  0  0  0  0
121211  1  0  0  0  0
128212  1  0  0  0  0
132213  1  0  0  0  0
138214  1  0  0  0  0
138215  1  0  0  0  0
139216  1  0  0  0  0
139217  1  0  0  0  0
139218  1  0  0  0  0
150219  1  0  0  0  0
150220  1  0  0  0  0
151221  1  0  0  0  0
151222  1  0  0  0  0
151223  1  0  0  0  0
158224  1  0  0  0  0
159225  1  0  0  0  0
M  CHG  1  96   1
M  CHG  1  97  -1
M  END
