
  xtb     02282219563D
 energy: -218.941925290024 gnorm: 0.000200293573 xtb: 6.4.1 (unknown)
129146  0     0  0            999 V2000
   16.7279   -0.7155    1.9325 C   0  0  0  0  0  0  0  0  0  0  0  0
   15.8025    0.3099    2.9839 S   0  0  0  0  0  0  0  0  0  0  0  0
   14.5023   -0.8253    2.9498 C   0  0  0  0  0  0  0  0  0  0  0  0
   13.2097   -1.0337    3.4409 C   0  0  0  0  0  0  0  0  0  0  0  0
   12.7770   -2.2698    2.9247 C   0  0  0  0  0  0  0  0  0  0  0  0
   13.7669   -2.8231    2.1552 N   0  0  0  0  0  0  0  0  0  0  0  0
   13.6517   -4.0174    1.3610 C   0  0  0  0  0  0  0  0  0  0  0  0
   13.0355   -3.7251   -0.0064 C   0  0  0  0  0  0  0  0  0  0  0  0
   14.8138   -1.9384    2.1493 C   0  0  0  0  0  0  0  0  0  0  0  0
   16.0958   -1.8632    1.5696 C   0  0  0  0  0  0  0  0  0  0  0  0
   11.4757   -2.6151    3.3110 C   0  0  0  0  0  0  0  0  0  0  0  0
   10.9104   -1.6500    4.1115 C   0  0  0  0  0  0  0  0  0  0  0  0
   11.9947   -0.2936    4.4170 S   0  0  0  0  0  0  0  0  0  0  0  0
    9.5883   -1.6244    4.6296 C   0  0  0  0  0  0  0  0  0  0  0  0
    8.5112   -2.9873    4.3275 S   0  0  0  0  0  0  0  0  0  0  0  0
    7.2196   -2.1498    5.1081 C   0  0  0  0  0  0  0  0  0  0  0  0
    5.8551   -2.2519    5.3738 C   0  0  0  0  0  0  0  0  0  0  0  0
    5.4728   -1.0479    6.0021 C   0  0  0  0  0  0  0  0  0  0  0  0
    6.5628   -0.2269    6.1270 N   0  0  0  0  0  0  0  0  0  0  0  0
    6.5936    1.0546    6.7806 C   0  0  0  0  0  0  0  0  0  0  0  0
    6.8875    0.9165    8.2733 C   0  0  0  0  0  0  0  0  0  0  0  0
    7.6336   -0.8897    5.5872 C   0  0  0  0  0  0  0  0  0  0  0  0
    8.9770   -0.6030    5.3201 C   0  0  0  0  0  0  0  0  0  0  0  0
    4.0981   -0.9528    6.2400 C   0  0  0  0  0  0  0  0  0  0  0  0
    3.4253   -2.0721    5.8022 C   0  0  0  0  0  0  0  0  0  0  0  0
    4.5026   -3.2933    5.1211 S   0  0  0  0  0  0  0  0  0  0  0  0
    2.0223   -2.2508    5.6998 C   0  0  0  0  0  0  0  0  0  0  0  0
    0.9577   -0.8667    5.9527 S   0  0  0  0  0  0  0  0  0  0  0  0
   -0.3792   -1.7752    5.3470 C   0  0  0  0  0  0  0  0  0  0  0  0
   -1.6940   -1.6112    4.9215 C   0  0  0  0  0  0  0  0  0  0  0  0
   -2.0928   -2.8532    4.3716 C   0  0  0  0  0  0  0  0  0  0  0  0
   -1.0766   -3.7682    4.5008 N   0  0  0  0  0  0  0  0  0  0  0  0
   -1.0584   -5.0848    3.9203 C   0  0  0  0  0  0  0  0  0  0  0  0
   -0.6187   -5.0494    2.4573 C   0  0  0  0  0  0  0  0  0  0  0  0
   -0.0069   -3.1045    5.0428 C   0  0  0  0  0  0  0  0  0  0  0  0
    1.3500   -3.3655    5.2446 C   0  0  0  0  0  0  0  0  0  0  0  0
   -3.3222   -2.8066    3.7239 C   0  0  0  0  0  0  0  0  0  0  0  0
   -3.8698   -1.5343    3.7505 C   0  0  0  0  0  0  0  0  0  0  0  0
   -2.8942   -0.3934    4.6816 S   0  0  0  0  0  0  0  0  0  0  0  0
   -4.9365   -1.0381    2.9552 C   0  0  0  0  0  0  0  0  0  0  0  0
   -5.2639    0.3359    2.9776 C   0  0  0  0  0  0  0  0  0  0  0  0
   -4.8865    1.1946    3.9215 N   0  0  0  0  0  0  0  0  0  0  0  0
   -5.4081    2.6661    3.5380 S   0  0  0  0  0  0  0  0  0  0  0  0
   -6.1241    2.2973    2.1415 N   0  0  0  0  0  0  0  0  0  0  0  0
   -5.9977    0.9895    1.9175 C   0  0  0  0  0  0  0  0  0  0  0  0
   -6.4234    0.2630    0.7846 C   0  0  0  0  0  0  0  0  0  0  0  0
   -6.2875   -1.1421    0.8814 C   0  0  0  0  0  0  0  0  0  0  0  0
   -5.5843   -1.7943    1.9433 C   0  0  0  0  0  0  0  0  0  0  0  0
   -5.4964   -3.1364    1.9267 N   0  0  0  0  0  0  0  0  0  0  0  0
   -6.0128   -3.8265    0.9410 C   0  0  0  0  0  0  0  0  0  0  0  0
   -5.8434   -5.3159    1.0241 C   0  0  0  0  0  0  0  0  0  0  0  0
   -4.5356   -5.7387    0.3506 C   0  0  0  0  0  0  0  0  0  0  0  0
   -6.6588   -3.1737   -0.1443 C   0  0  0  0  0  0  0  0  0  0  0  0
   -7.2857   -3.8863   -1.3034 C   0  0  0  0  0  0  0  0  0  0  0  0
   -8.7545   -4.1931   -1.0020 C   0  0  0  0  0  0  0  0  0  0  0  0
   -6.7839   -1.8723   -0.1280 N   0  0  0  0  0  0  0  0  0  0  0  0
   -6.7886    0.8655   -0.4449 C   0  0  0  0  0  0  0  0  0  0  0  0
   -7.0202   -0.1377   -1.8709 S   0  0  0  0  0  0  0  0  0  0  0  0
   -7.0783    1.2860   -2.8577 C   0  0  0  0  0  0  0  0  0  0  0  0
   -7.1116    1.6960   -4.1876 C   0  0  0  0  0  0  0  0  0  0  0  0
   -7.0299    3.1073   -4.1905 C   0  0  0  0  0  0  0  0  0  0  0  0
   -6.9520    3.5653   -2.9019 N   0  0  0  0  0  0  0  0  0  0  0  0
   -6.9364    4.9393   -2.4777 C   0  0  0  0  0  0  0  0  0  0  0  0
   -8.3508    5.4827   -2.2806 C   0  0  0  0  0  0  0  0  0  0  0  0
   -6.9811    2.4648   -2.0810 C   0  0  0  0  0  0  0  0  0  0  0  0
   -6.8246    2.2230   -0.7207 C   0  0  0  0  0  0  0  0  0  0  0  0
   -6.9549    3.6617   -5.4698 C   0  0  0  0  0  0  0  0  0  0  0  0
   -6.9748    2.6886   -6.4499 C   0  0  0  0  0  0  0  0  0  0  0  0
   -7.1208    1.0635   -5.7932 S   0  0  0  0  0  0  0  0  0  0  0  0
   -6.8241    2.8747   -7.8513 C   0  0  0  0  0  0  0  0  0  0  0  0
   -6.9500    1.4954   -8.9370 S   0  0  0  0  0  0  0  0  0  0  0  0
   -6.5725    2.5041  -10.2832 C   0  0  0  0  0  0  0  0  0  0  0  0
   -6.3688    2.4624  -11.6663 C   0  0  0  0  0  0  0  0  0  0  0  0
   -6.0479    3.7708  -12.0679 C   0  0  0  0  0  0  0  0  0  0  0  0
   -6.0720    4.6094  -10.9833 N   0  0  0  0  0  0  0  0  0  0  0  0
   -5.6714    5.9909  -10.9650 C   0  0  0  0  0  0  0  0  0  0  0  0
   -4.1721    6.1382  -10.7076 C   0  0  0  0  0  0  0  0  0  0  0  0
   -6.3716    3.8407   -9.8876 C   0  0  0  0  0  0  0  0  0  0  0  0
   -6.5190    4.0466   -8.5113 C   0  0  0  0  0  0  0  0  0  0  0  0
   -5.8005    3.8823  -13.4503 C   0  0  0  0  0  0  0  0  0  0  0  0
   -5.9361    2.6781  -14.0674 C   0  0  0  0  0  0  0  0  0  0  0  0
   -6.3668    1.3742  -13.0063 S   0  0  0  0  0  0  0  0  0  0  0  0
   17.7072   -0.3906    1.6426 H   0  0  0  0  0  0  0  0  0  0  0  0
   14.6503   -4.4458    1.2401 H   0  0  0  0  0  0  0  0  0  0  0  0
   13.0298   -4.7327    1.9065 H   0  0  0  0  0  0  0  0  0  0  0  0
   12.0413   -3.3010    0.1130 H   0  0  0  0  0  0  0  0  0  0  0  0
   13.6511   -3.0139   -0.5526 H   0  0  0  0  0  0  0  0  0  0  0  0
   12.9587   -4.6408   -0.5862 H   0  0  0  0  0  0  0  0  0  0  0  0
   16.5292   -2.6038    0.9221 H   0  0  0  0  0  0  0  0  0  0  0  0
   10.9501   -3.5073    3.0222 H   0  0  0  0  0  0  0  0  0  0  0  0
    7.3642    1.6644    6.3011 H   0  0  0  0  0  0  0  0  0  0  0  0
    5.6239    1.5374    6.6317 H   0  0  0  0  0  0  0  0  0  0  0  0
    6.9051    1.8960    8.7428 H   0  0  0  0  0  0  0  0  0  0  0  0
    6.1216    0.3112    8.7527 H   0  0  0  0  0  0  0  0  0  0  0  0
    7.8523    0.4378    8.4239 H   0  0  0  0  0  0  0  0  0  0  0  0
    9.4916    0.3024    5.5867 H   0  0  0  0  0  0  0  0  0  0  0  0
    3.5924   -0.1122    6.6796 H   0  0  0  0  0  0  0  0  0  0  0  0
   -0.3749   -5.7076    4.5038 H   0  0  0  0  0  0  0  0  0  0  0  0
   -2.0657   -5.5031    3.9989 H   0  0  0  0  0  0  0  0  0  0  0  0
   -0.6346   -6.0510    2.0363 H   0  0  0  0  0  0  0  0  0  0  0  0
   -1.2876   -4.4141    1.8812 H   0  0  0  0  0  0  0  0  0  0  0  0
    0.3896   -4.6502    2.3765 H   0  0  0  0  0  0  0  0  0  0  0  0
    1.8496   -4.2945    5.0361 H   0  0  0  0  0  0  0  0  0  0  0  0
   -3.8016   -3.6135    3.2033 H   0  0  0  0  0  0  0  0  0  0  0  0
   -6.6847   -5.8251    0.5547 H   0  0  0  0  0  0  0  0  0  0  0  0
   -5.8089   -5.5955    2.0784 H   0  0  0  0  0  0  0  0  0  0  0  0
   -4.5345   -5.4630   -0.7019 H   0  0  0  0  0  0  0  0  0  0  0  0
   -3.6925   -5.2482    0.8313 H   0  0  0  0  0  0  0  0  0  0  0  0
   -4.4028   -6.8153    0.4278 H   0  0  0  0  0  0  0  0  0  0  0  0
   -7.2348   -3.2235   -2.1681 H   0  0  0  0  0  0  0  0  0  0  0  0
   -6.7489   -4.8079   -1.5279 H   0  0  0  0  0  0  0  0  0  0  0  0
   -9.2913   -3.2671   -0.8129 H   0  0  0  0  0  0  0  0  0  0  0  0
   -8.8488   -4.8317   -0.1255 H   0  0  0  0  0  0  0  0  0  0  0  0
   -9.2138   -4.6957   -1.8495 H   0  0  0  0  0  0  0  0  0  0  0  0
   -6.4094    5.5271   -3.2347 H   0  0  0  0  0  0  0  0  0  0  0  0
   -6.3789    4.9994   -1.5391 H   0  0  0  0  0  0  0  0  0  0  0  0
   -8.9108    5.4212   -3.2110 H   0  0  0  0  0  0  0  0  0  0  0  0
   -8.3128    6.5205   -1.9611 H   0  0  0  0  0  0  0  0  0  0  0  0
   -8.8719    4.9013   -1.5238 H   0  0  0  0  0  0  0  0  0  0  0  0
   -6.7038    2.9611    0.0501 H   0  0  0  0  0  0  0  0  0  0  0  0
   -6.8795    4.7115   -5.6848 H   0  0  0  0  0  0  0  0  0  0  0  0
   -6.2384    6.5020  -10.1817 H   0  0  0  0  0  0  0  0  0  0  0  0
   -5.9325    6.4362  -11.9288 H   0  0  0  0  0  0  0  0  0  0  0  0
   -3.6058    5.6344  -11.4874 H   0  0  0  0  0  0  0  0  0  0  0  0
   -3.8946    7.1887  -10.6952 H   0  0  0  0  0  0  0  0  0  0  0  0
   -3.9103    5.6938   -9.7501 H   0  0  0  0  0  0  0  0  0  0  0  0
   -6.3932    4.9891   -8.0115 H   0  0  0  0  0  0  0  0  0  0  0  0
   -5.5356    4.7890  -13.9633 H   0  0  0  0  0  0  0  0  0  0  0  0
   -5.8060    2.4615  -15.1090 H   0  0  0  0  0  0  0  0  0  0  0  0
  1  2  1  0  0  0  0
  2  3  1  0  0  0  0
  3  4  1  0  0  0  0
  4  5  2  0  0  0  0
  5  6  1  0  0  0  0
  6  7  1  0  0  0  0
  7  8  1  0  0  0  0
  6  9  1  0  0  0  0
  9 10  1  0  0  0  0
  5 11  1  0  0  0  0
 11 12  2  0  0  0  0
 12 13  1  0  0  0  0
 12 14  1  0  0  0  0
 14 15  1  0  0  0  0
 15 16  1  0  0  0  0
 16 17  1  0  0  0  0
 17 18  2  0  0  0  0
 18 19  1  0  0  0  0
 19 20  1  0  0  0  0
 20 21  1  0  0  0  0
 19 22  1  0  0  0  0
 22 23  1  0  0  0  0
 18 24  1  0  0  0  0
 24 25  2  0  0  0  0
 25 26  1  0  0  0  0
 25 27  1  0  0  0  0
 27 28  1  0  0  0  0
 28 29  1  0  0  0  0
 29 30  1  0  0  0  0
 30 31  2  0  0  0  0
 31 32  1  0  0  0  0
 32 33  1  0  0  0  0
 33 34  1  0  0  0  0
 32 35  1  0  0  0  0
 35 36  1  0  0  0  0
 31 37  1  0  0  0  0
 37 38  2  0  0  0  0
 38 39  1  0  0  0  0
 38 40  1  0  0  0  0
 40 41  1  0  0  0  0
 41 42  2  0  0  0  0
 42 43  1  0  0  0  0
 43 44  1  0  0  0  0
 44 45  2  0  0  0  0
 45 46  1  0  0  0  0
 46 47  2  0  0  0  0
 47 48  1  0  0  0  0
 48 49  1  0  0  0  0
 49 50  2  0  0  0  0
 50 51  1  0  0  0  0
 51 52  1  0  0  0  0
 50 53  1  0  0  0  0
 53 54  1  0  0  0  0
 54 55  1  0  0  0  0
 53 56  2  0  0  0  0
 46 57  1  0  0  0  0
 57 58  1  0  0  0  0
 58 59  1  0  0  0  0
 59 60  1  0  0  0  0
 60 61  2  0  0  0  0
 61 62  1  0  0  0  0
 62 63  1  0  0  0  0
 63 64  1  0  0  0  0
 62 65  1  0  0  0  0
 65 66  1  0  0  0  0
 61 67  1  0  0  0  0
 67 68  2  0  0  0  0
 68 69  1  0  0  0  0
 68 70  1  0  0  0  0
 70 71  1  0  0  0  0
 71 72  1  0  0  0  0
 72 73  1  0  0  0  0
 73 74  2  0  0  0  0
 74 75  1  0  0  0  0
 75 76  1  0  0  0  0
 76 77  1  0  0  0  0
 75 78  1  0  0  0  0
 78 79  1  0  0  0  0
 74 80  1  0  0  0  0
 80 81  2  0  0  0  0
 81 82  1  0  0  0  0
 10  1  2  0  0  0  0
 23 14  2  0  0  0  0
 36 27  2  0  0  0  0
 48 40  2  0  0  0  0
 66 57  2  0  0  0  0
 79 70  2  0  0  0  0
  9  3  2  0  0  0  0
 22 16  2  0  0  0  0
 35 29  2  0  0  0  0
 45 41  1  0  0  0  0
 56 47  1  0  0  0  0
 65 59  2  0  0  0  0
 78 72  2  0  0  0  0
 13  4  1  0  0  0  0
 26 17  1  0  0  0  0
 39 30  1  0  0  0  0
 69 60  1  0  0  0  0
 82 73  1  0  0  0  0
  1 83  1  0  0  0  0
  7 84  1  0  0  0  0
  7 85  1  0  0  0  0
  8 86  1  0  0  0  0
  8 87  1  0  0  0  0
  8 88  1  0  0  0  0
 10 89  1  0  0  0  0
 11 90  1  0  0  0  0
 20 91  1  0  0  0  0
 20 92  1  0  0  0  0
 21 93  1  0  0  0  0
 21 94  1  0  0  0  0
 21 95  1  0  0  0  0
 23 96  1  0  0  0  0
 24 97  1  0  0  0  0
 33 98  1  0  0  0  0
 33 99  1  0  0  0  0
 34100  1  0  0  0  0
 34101  1  0  0  0  0
 34102  1  0  0  0  0
 36103  1  0  0  0  0
 37104  1  0  0  0  0
 51105  1  0  0  0  0
 51106  1  0  0  0  0
 52107  1  0  0  0  0
 52108  1  0  0  0  0
 52109  1  0  0  0  0
 54110  1  0  0  0  0
 54111  1  0  0  0  0
 55112  1  0  0  0  0
 55113  1  0  0  0  0
 55114  1  0  0  0  0
 63115  1  0  0  0  0
 63116  1  0  0  0  0
 64117  1  0  0  0  0
 64118  1  0  0  0  0
 64119  1  0  0  0  0
 66120  1  0  0  0  0
 67121  1  0  0  0  0
 76122  1  0  0  0  0
 76123  1  0  0  0  0
 77124  1  0  0  0  0
 77125  1  0  0  0  0
 77126  1  0  0  0  0
 79127  1  0  0  0  0
 80128  1  0  0  0  0
 81129  1  0  0  0  0
M  END
