228

C         -5.80980       -4.98970       16.26820
C         -6.23460       -3.86300       15.66230
C         -5.92440       -3.82930       14.26960
C         -6.24680       -2.83550       13.33400
C         -6.89790       -1.58080       13.73040
C         -6.37560       -0.80480       14.76060
C         -6.95800        0.39560       15.12030
C         -8.09130        0.86040       14.46170
S         -8.93290        2.36310       14.81360
C         -7.86100        3.17040       16.06120
C         -8.41500        4.55220       16.35350
C         -8.60920        0.06620       13.43540
F         -9.71460        0.48150       12.78660
C         -8.03320       -1.12610       13.06230
C         -5.88920       -3.08140       12.01610
C         -5.20800       -4.25380       11.60700
C         -4.88520       -5.24930       12.54370
C         -4.20540       -6.48200       12.12930
C         -3.05770       -6.93370       12.77800
C         -2.40650       -8.06770       12.34200
C         -2.87900       -8.80830       11.25950
S         -1.96800      -10.25510       10.80850
C         -2.04620      -10.28880        8.97830
C         -1.48160       -9.02640        8.35970
C         -4.05540       -8.37440       10.65540
C         -4.70190       -7.22570       11.06290
F         -4.61140       -9.06750        9.63690
C         -5.24890       -5.00450       13.85960
S         -5.00470       -6.09110       15.20300
C         -4.88060       -4.21920       10.22840
C         -5.30320       -3.08850        9.59300
S         -6.13740       -1.99360       10.67520
C         -5.10210       -2.75280        8.21850
C         -4.36490       -3.45040        7.30590
C         -4.31530       -2.84050        6.02890
C         -3.60480       -3.27360        4.89600
C         -2.73980       -4.45920        4.93770
C         -1.78100       -4.60940        5.93620
C         -0.95290       -5.71460        5.97350
C         -1.04870       -6.70750        5.00560
S         -0.07020       -8.17390        4.94940
C          1.38020       -7.77750        5.98650
C          2.26600       -6.72250        5.35240
C         -2.01710       -6.54680        4.01330
F         -2.14430       -7.49570        3.06560
C         -2.84930       -5.45100        3.96560
C         -3.73470       -2.50360        3.75140
C         -4.51830       -1.32400        3.70050
C         -5.20450       -0.87330        4.84130
C         -5.97490        0.37520        4.79950
C         -7.29250        0.43460        5.25010
C         -8.02680        1.59420        5.12180
C         -7.47800        2.74190        4.55140
S         -8.50830        4.16680        4.40120
C         -7.95150        4.91510        2.81430
C         -9.10400        5.68770        2.20370
C         -6.14090        2.68790        4.16830
C         -5.40000        1.53010        4.27550
F         -5.51670        3.78120        3.67070
C         -5.09350       -1.65590        5.98010
S         -5.80810       -1.30580        7.53140
C         -4.46870       -0.71690        2.42220
C         -3.64440       -1.35170        1.54230
S         -2.91620       -2.78830        2.23440
C         -3.29300       -0.89890        0.23790
C         -2.41020       -1.44420       -0.64570
C         -2.18540       -0.63960       -1.79160
C         -1.32510       -0.88690       -2.87490
C         -0.49710       -2.09550       -2.95380
C          0.30330       -2.49910       -1.88950
C          1.08730       -3.63410       -1.97250
C          1.09590       -4.41050       -3.12640
S          2.03730       -5.87440       -3.36700
C          2.75720       -6.19440       -1.71300
C          3.48680       -7.52390       -1.75310
C          0.29710       -3.98590       -4.19130
F          0.28530       -4.71170       -5.32650
C         -0.48510       -2.85700       -4.12190
C         -1.27840        0.08440       -3.86270
C         -2.06020        1.26630       -3.83950
C         -2.94990        1.49520       -2.77600
C         -3.83540        2.66420       -2.73230
C         -3.92870        3.45820       -1.59330
C         -4.81600        4.51470       -1.52610
C         -5.64590        4.81820       -2.59950
S         -6.86420        6.08750       -2.63000
C         -6.49560        7.10300       -1.15730
C         -5.23530        7.92940       -1.32940
C         -5.53220        4.02110       -3.74160
C         -4.64950        2.96830       -3.82260
F         -6.32240        4.27910       -4.80190
C         -2.96400        0.54480       -1.76670
S         -3.94310        0.62860       -0.32760
C         -1.74340        2.13680       -4.91120
C         -0.75160        1.66060       -5.72470
S         -0.19220        0.07470       -5.22640
C         -0.12050        2.29300       -6.82810
S          1.33720        1.61470       -7.51520
C          1.56620        2.91620       -8.64850
C          0.52890        3.84410       -8.50970
C         -0.40580        3.47590       -7.48360
N         -1.34280        4.45730       -7.39420
C         -1.01980        5.43180       -8.30690
N         -1.81060        6.59030       -8.39130
O         -1.50360        7.43580       -9.20760
O         -2.75470        6.65850       -7.61860
C          0.11880        5.09940       -9.00880
C          2.71000        2.92160       -9.47230
S          4.09930        1.94350       -9.03730
C          5.05980        2.47140      -10.38430
C          4.31810        3.36050      -11.16720
C          3.00570        3.60260      -10.64380
N          2.35570        4.43270      -11.49970
C          3.20900        4.71580      -12.53930
N          2.76910        5.54100      -13.59040
O          3.54420        5.77800      -14.49410
O          1.62290        5.95310      -13.51070
C          4.42350        4.08760      -12.37330
C          6.38480        2.00460      -10.54490
C          7.32350        2.40480      -11.45980
C          8.56260        1.73520      -11.32890
C          9.73750        1.93740      -12.07480
C          9.77740        2.86910      -13.20600
C          8.81270        2.82140      -14.21300
C          8.87950        3.67780      -15.28960
C          9.89500        4.62810      -15.40430
S          9.83720        5.68710      -16.81490
C         11.59050        5.99930      -17.24030
C         12.34810        4.71600      -17.51460
C         10.83000        4.68590      -14.37440
F         11.81470        5.61090      -14.37860
C         10.79160        3.81580      -13.30420
C         10.85020        1.20030      -11.69350
C         10.83890        0.27210      -10.62390
C          9.66730        0.07180       -9.87770
C          9.62110       -0.85060       -8.73560
C          8.63040       -1.82570       -8.63960
C          8.57500       -2.66380       -7.54660
C          9.50130       -2.56650       -6.51040
S          9.35550       -3.71950       -5.17640
C          9.68130       -2.70630       -3.68580
C          8.71520       -1.54460       -3.56960
C         10.49990       -1.60510       -6.63230
C         10.56020       -0.75050       -7.71450
F         11.45480       -1.47240       -5.68490
C          8.55460        0.80420      -10.25850
S          7.00370        0.76680       -9.46320
C         12.09320       -0.39270      -10.49190
C         13.00150        0.01480      -11.40200
S         12.40790        1.22870      -12.48050
H         -5.91650       -5.26410       17.29950
H         -6.77080       -3.07920       16.16550
H         -5.48400       -1.13280       15.27370
H         -6.51870        0.96870       15.92030
H         -7.86050        2.55360       16.96030
H         -6.85520        3.23430       15.64590
H         -7.79170        5.05210       17.09190
H         -9.42850        4.48200       16.74140
H         -8.43430        5.15300       15.44740
H         -8.48220       -1.69960       12.26700
H         -2.65710       -6.37360       13.60850
H         -1.50670       -8.40290       12.83370
H         -3.07170      -10.47250        8.66710
H         -1.43740      -11.15560        8.72160
H         -0.47100       -8.84810        8.72300
H         -2.09630       -8.16210        8.60580
H         -1.45540       -9.13230        7.27700
H         -5.61440       -6.93900       10.56290
H         -4.33420       -5.00140        9.73510
H         -3.87180       -4.37750        7.53140
H         -1.66600       -3.83910        6.68400
H         -0.23030       -5.79690        6.76920
H          1.03600       -7.49020        6.97880
H          1.90360       -8.73040        6.06350
H          1.72760       -5.78520        5.22700
H          2.60610       -7.05660        4.37500
H          3.13590       -6.54280        5.98120
H         -3.58600       -5.38620        3.18070
H         -7.75590       -0.44530        5.66820
H         -9.05380        1.62830        5.44970
H         -7.10370        5.56710        3.02130
H         -7.64040        4.09650        2.16650
H         -9.42060        6.48880        2.86740
H         -8.79720        6.12170        1.25410
H         -9.95240        5.03050        2.02780
H         -4.36420        1.54860        3.97320
H         -5.02230        0.16500        2.15490
H         -1.93380       -2.39290       -0.47600
H          0.33640       -1.90220       -0.99060
H          1.69880       -3.90690       -1.12800
H          3.44420       -5.38090       -1.47780
H          1.93950       -6.22000       -0.99260
H          2.79920       -8.32680       -2.00780
H          3.92520       -7.73500       -0.78000
H          4.28010       -7.50090       -2.49660
H         -1.09730       -2.59170       -4.96920
H         -3.29000        3.25730       -0.74710
H         -4.86170        5.09240       -0.61770
H         -7.37040        7.74760       -1.06960
H         -6.45390        6.45270       -0.28410
H         -5.07320        8.54540       -0.44690
H         -4.36550        7.29210       -1.47340
H         -5.32980        8.57950       -2.19570
H         -4.62540        2.36850       -4.71940
H         -2.19980        3.10230       -5.02780
H         -2.15490        4.51360       -6.80070
H          0.58110        5.72220       -9.74640
H          1.40060        4.75320      -11.47050
H          5.24880        4.15280      -13.05150
H          7.14750        3.18110      -12.17950
H          8.03040        2.07900      -14.16720
H          8.14130        3.62650      -16.07480
H         12.05120        6.58580      -16.44880
H         11.51800        6.61190      -18.13920
H         11.85120        4.13740      -18.29060
H         13.35720        4.95210      -17.84590
H         12.41720        4.10390      -16.61740
H         11.54130        3.91260      -12.53470
H          7.90500       -1.93220       -9.43100
H          7.80490       -3.41550       -7.47390
H         10.71760       -2.37650       -3.69900
H          9.54540       -3.41500       -2.86880
H          8.85170       -0.84210       -4.38990
H          7.68680       -1.89930       -3.58810
H          8.88760       -1.01700       -2.63360
H         11.33840       -0.00340       -7.74460
H         12.28490       -1.15320       -9.75710
H         14.01260       -0.32310      -11.51960
