220

C         -6.18000      -14.00950       10.14670
C         -6.62670      -12.73840       10.18990
C         -6.15010      -11.94440        9.10380
C         -6.38720      -10.58480        8.85360
C         -7.29020       -9.79260        9.69710
C         -8.58120      -10.23740        9.98190
C         -9.42280       -9.48660       10.77090
C         -9.02360       -8.26100       11.30990
S        -10.23200       -7.41500       12.27430
C         -9.29280       -6.22930       13.31580
C        -10.19870       -5.74960       14.43310
C         -7.74120       -7.82060       10.99720
F         -7.27450       -6.63350       11.44950
C         -6.88440       -8.56820       10.21400
C         -5.73680      -10.03040        7.76020
C         -4.87930      -10.77290        6.91160
C         -4.65570      -12.13800        7.15240
C         -3.78110      -12.93010        6.27990
C         -4.21670      -14.13290        5.72600
C         -3.40820      -14.84380        4.86620
C         -2.12860      -14.39820        4.53600
S         -1.18120      -15.38900        3.42560
C         -0.18630      -14.15360        2.49470
C          0.17040      -14.72620        1.13740
C         -1.68730      -13.22470        5.14020
C         -2.49570      -12.48890        5.98180
F         -0.43230      -12.76270        4.92810
C         -5.30630      -12.69060        8.24600
S         -5.15300      -14.34050        8.79340
C         -4.38080       -9.98270        5.84430
C         -4.82430       -8.69400        5.86550
S         -5.89960       -8.38290        7.21120
C         -4.48270       -7.65490        4.94350
C         -3.39820       -7.62230        4.11690
C         -3.33190       -6.45910        3.30950
C         -2.32420       -6.09310        2.39950
C         -1.18720       -6.97780        2.11960
C          0.11980       -6.49350        2.13590
C          1.18500       -7.33400        1.89200
C          0.99330       -8.68570        1.62040
S          2.42200       -9.68000        1.29210
C          2.13390      -11.13970        2.36070
C          2.04300      -10.75630        3.82350
C         -0.31750       -9.15080        1.57700
F         -0.58290      -10.44390        1.28290
C         -1.39300       -8.32380        1.82830
C         -2.45600       -4.85170        1.79440
C         -3.55070       -3.98490        2.03880
C         -4.55760       -4.35030        2.94870
C         -5.68100       -3.45060        3.23280
C         -5.45840       -2.11680        3.56710
C         -6.50990       -1.25170        3.79400
C         -7.82670       -1.68590        3.68300
S         -9.24590       -0.67120        3.91890
C         -8.61580        1.02220        3.64240
C         -8.15560        1.24140        2.21480
C         -8.03440       -3.03430        3.38570
C         -6.99450       -3.90960        3.16520
F         -9.29540       -3.49700        3.29070
C         -4.42100       -5.58610        3.56070
S         -5.49140       -6.23600        4.77390
C         -3.47140       -2.80110        1.26550
C         -2.35830       -2.73410        0.47860
S         -1.35850       -4.16410        0.62580
C         -1.94270       -1.63090       -0.32750
C         -2.53790       -0.40390       -0.40630
C         -1.82550        0.52210       -1.20540
C         -2.12470        1.87740       -1.42820
C         -3.27740        2.53120       -0.79580
C         -3.49240        2.44030        0.57890
C         -4.54990        3.09890        1.16880
C         -5.43960        3.86120        0.41530
S         -6.76930        4.65850        1.26950
C         -6.85350        6.31450        0.49600
C         -5.53320        7.05150        0.58810
C         -5.23520        3.91250       -0.96020
F         -6.08830        4.58630       -1.75860
C         -4.16630        3.27900       -1.56080
C         -1.25030        2.58130       -2.24080
C         -0.09800        1.99550       -2.82440
C          0.20990        0.64250       -2.59300
C          1.41890        0.03810       -3.16320
C          2.65600        0.66680       -3.04740
C          3.79060        0.13330       -3.62700
C          3.73110       -1.05510       -4.34630
S          5.07280       -1.82470       -5.18300
C          6.44750       -0.62880       -5.04650
C          7.20500       -0.75770       -3.73730
C          2.49040       -1.69450       -4.42200
C          1.35270       -1.17330       -3.84990
F          2.39800       -2.85530       -5.09830
C         -0.67180       -0.06260       -1.78900
S         -0.48360       -1.72190       -1.28850
C          0.63760        2.93400       -3.58390
C          0.11770        4.19600       -3.54310
S         -1.35850        4.28780       -2.60770
C          0.70930        5.35370       -4.11400
S          2.26240        5.24850       -4.92450
C          2.38570        6.97350       -5.20380
C          1.25400        7.55830       -4.69930
C          0.33650        6.67190       -4.10340
O         -0.71270        7.40920       -3.63760
C         -0.44840        8.70870       -3.93930
O         -1.15410        9.62150       -3.67570
O          0.74820        8.82020       -4.58670
C          3.53650        7.54990       -5.80750
C          3.80840        8.87600       -5.98760
C          5.07980        9.10900       -6.57030
C          5.69180       10.34210       -6.85430
C          5.05020       11.61320       -6.49840
C          4.57650       11.83450       -5.20530
C          3.97850       13.02970       -4.87280
C          3.82730       14.05420       -5.80750
S          3.08290       15.54860       -5.23390
C          2.10260       16.15950       -6.65420
C          1.06960       15.14770       -7.10720
C          4.33010       13.82840       -7.08610
F          4.25320       14.77860       -8.04160
C          4.92320       12.63190       -7.43600
C          6.94380       10.29320       -7.45050
C          7.61990        9.08000       -7.74050
C          7.01890        7.84770       -7.43620
C          7.69440        6.56400       -7.66300
C          8.97380        6.32670       -7.16930
C          9.58330        5.09640       -7.32580
C          8.93400        4.05770       -7.98370
S          9.59130        2.44680       -8.25960
C         10.95800        2.31110       -7.05600
C         10.45380        2.23310       -5.62760
C          7.66070        4.31840       -8.49460
C          7.04030        5.53700       -8.34120
F          7.01020        3.34200       -9.15540
C          5.75490        7.89820       -6.87050
S          4.82380        6.51040       -6.37450
C          8.88490        9.30940       -8.33490
C          9.18490       10.63330       -8.46720
S          7.91170       11.68100       -7.88120
C         10.37660       11.19910       -9.00580
S         11.69720       10.21060       -9.60480
C         12.68330       11.56750      -10.03160
C         12.02030       12.70740       -9.72560
C         10.73920       12.50760       -9.15550
O         10.20160       13.73220       -8.89880
C         11.11870       14.65870       -9.29570
O         10.97390       15.82910       -9.21230
O         12.23100       14.05030       -9.80230
H         -6.38620      -14.80420       10.83680
H         -7.25890      -12.35340       10.96910
H         -8.92840      -11.17040        9.56490
H        -10.42120       -9.83380       10.98820
H         -8.42530       -6.75530       13.71100
H         -8.97060       -5.39990       12.68840
H         -9.65910       -5.04830       15.06580
H        -10.53190       -6.58680       15.04240
H        -11.07460       -5.24970       14.02610
H         -5.89550       -8.18130       10.02390
H         -5.20920      -14.49390        5.94590
H         -3.75790      -15.76250        4.42210
H          0.70820      -13.93030        3.07450
H         -0.79900      -13.25920        2.39240
H         -0.72960      -14.96630        0.57630
H          0.76140      -15.63260        1.24760
H          0.74890      -13.99780        0.57310
H         -2.09900      -11.59030        6.42920
H         -3.74610      -10.37110        5.06930
H         -2.64410       -8.38720        4.11600
H          0.30460       -5.45720        2.37170
H          2.19490       -6.95590        1.91540
H          2.99990      -11.77310        2.17020
H          1.23790      -11.65100        2.01850
H          1.90310      -11.64800        4.42980
H          1.19740      -10.09270        3.99610
H          2.95090      -10.25000        4.14370
H         -2.39010       -8.73080        1.75740
H         -4.44560       -1.75790        3.67500
H         -6.29720       -0.23020        4.06560
H         -7.83230        1.23090        4.36970
H         -9.47580        1.65050        3.87200
H         -7.84060        2.27470        2.08340
H         -7.32010        0.58970        1.96660
H         -8.96840        1.03500        1.52280
H         -7.21660       -4.93410        2.91210
H         -4.22390       -2.03510        1.28700
H         -3.45670       -0.16210        0.09450
H         -2.80050        1.88220        1.19110
H         -4.70150        3.04440        2.23570
H         -7.19140        6.20620       -0.53220
H         -7.62850        6.81810        1.07410
H         -5.65020        8.05880        0.19420
H         -5.20210        7.11670        1.62280
H         -4.76230        6.54620        0.00880
H         -4.05630        3.35310       -2.63130
H          2.73920        1.57820       -2.47480
H          4.72370        0.66030       -3.51520
H          6.04640        0.37130       -5.20460
H          7.09200       -0.88000       -5.88910
H          8.01920       -0.03540       -3.70580
H          7.62330       -1.75700       -3.64440
H          6.55360       -0.58310       -2.88410
H          0.41900       -1.69940       -3.96970
H          1.52340        2.69610       -4.14470
H          3.11900        9.65380       -5.71440
H          4.69560       11.06820       -4.45470
H          3.61150       13.19690       -3.87210
H          2.77810       16.44490       -7.45730
H          1.62620       17.05550       -6.25580
H          1.54740       14.25550       -7.50720
H          0.45020       15.58350       -7.88840
H          0.43090       14.85460       -6.27670
H          5.27400       12.50760       -8.44860
H          9.49020        7.10690       -6.63080
H         10.57500        4.95390       -6.92800
H         11.45680        1.38530       -7.34230
H         11.64940        3.13800       -7.21070
H          9.78460        1.38300       -5.51500
H          9.91120        3.13610       -5.35490
H         11.29180        2.11010       -4.94430
H          6.05840        5.68080       -8.76310
H          9.54530        8.52750       -8.66410
H         13.64990       11.42410      -10.46490
