
  xtb     03022208493D
 energy: -477.338724495951 gnorm: 0.000445084207 xtb: 6.4.1 (unknown)
238265  0     0  0            999 V2000
   -9.8961  -16.7283    8.2814 C   0  0  0  0  0  0  0  0  0  0  0  0
   -9.3005  -16.5641    7.0828 C   0  0  0  0  0  0  0  0  0  0  0  0
   -9.0851  -15.1934    6.7563 C   0  0  0  0  0  0  0  0  0  0  0  0
   -8.4572  -14.6547    5.6234 C   0  0  0  0  0  0  0  0  0  0  0  0
   -7.8529  -15.5080    4.6125 C   0  0  0  0  0  0  0  0  0  0  0  0
   -8.2521  -15.3500    2.9286 S   0  0  0  0  0  0  0  0  0  0  0  0
   -7.1618  -16.6135    2.4724 C   0  0  0  0  0  0  0  0  0  0  0  0
   -7.0425  -17.0570    1.0562 C   0  0  0  0  0  0  0  0  0  0  0  0
   -8.1071  -18.1032    0.7177 C   0  0  0  0  0  0  0  0  0  0  0  0
   -6.5361  -17.1210    3.5719 C   0  0  0  0  0  0  0  0  0  0  0  0
   -5.3796  -18.3877    3.5163 Cl  0  0  0  0  0  0  0  0  0  0  0  0
   -6.9215  -16.4936    4.7868 C   0  0  0  0  0  0  0  0  0  0  0  0
   -6.2139  -16.8933    6.2989 Cl  0  0  0  0  0  0  0  0  0  0  0  0
   -8.4090  -13.2701    5.5259 C   0  0  0  0  0  0  0  0  0  0  0  0
   -8.9233  -12.4082    6.5244 C   0  0  0  0  0  0  0  0  0  0  0  0
   -9.5244  -12.9476    7.6736 C   0  0  0  0  0  0  0  0  0  0  0  0
  -10.0185  -12.0954    8.7437 C   0  0  0  0  0  0  0  0  0  0  0  0
   -8.9691  -10.9534    9.5319 S   0  0  0  0  0  0  0  0  0  0  0  0
  -10.2081  -10.4550   10.6332 C   0  0  0  0  0  0  0  0  0  0  0  0
   -9.9575   -9.3892   11.6421 C   0  0  0  0  0  0  0  0  0  0  0  0
  -10.0803   -7.9996   11.0136 C   0  0  0  0  0  0  0  0  0  0  0  0
  -11.3651  -11.1280   10.3785 C   0  0  0  0  0  0  0  0  0  0  0  0
  -11.2598  -12.0645    9.3141 C   0  0  0  0  0  0  0  0  0  0  0  0
  -12.5936  -12.9915    8.7690 Cl  0  0  0  0  0  0  0  0  0  0  0  0
  -12.8224  -10.8923   11.2530 Cl  0  0  0  0  0  0  0  0  0  0  0  0
   -9.5942  -14.3329    7.7591 C   0  0  0  0  0  0  0  0  0  0  0  0
  -10.2540  -15.2420    9.0885 S   0  0  0  0  0  0  0  0  0  0  0  0
   -8.7419  -11.0432    6.1895 C   0  0  0  0  0  0  0  0  0  0  0  0
   -8.0946  -10.8567    5.0029 C   0  0  0  0  0  0  0  0  0  0  0  0
   -7.6830  -12.3710    4.2266 S   0  0  0  0  0  0  0  0  0  0  0  0
   -7.7336   -9.6185    4.3883 C   0  0  0  0  0  0  0  0  0  0  0  0
   -8.0407   -8.3555    4.8055 C   0  0  0  0  0  0  0  0  0  0  0  0
   -7.4978   -7.3402    3.9807 C   0  0  0  0  0  0  0  0  0  0  0  0
   -7.5734   -5.9466    4.1578 C   0  0  0  0  0  0  0  0  0  0  0  0
   -8.3391   -5.3591    5.2454 C   0  0  0  0  0  0  0  0  0  0  0  0
  -10.0265   -5.7269    5.4533 S   0  0  0  0  0  0  0  0  0  0  0  0
  -10.1767   -4.6497    6.7994 C   0  0  0  0  0  0  0  0  0  0  0  0
  -11.4652   -4.5016    7.5303 C   0  0  0  0  0  0  0  0  0  0  0  0
  -11.6138   -5.5850    8.6007 C   0  0  0  0  0  0  0  0  0  0  0  0
   -8.9769   -4.0642    7.0723 C   0  0  0  0  0  0  0  0  0  0  0  0
   -8.7268   -2.9490    8.3514 Cl  0  0  0  0  0  0  0  0  0  0  0  0
   -7.9348   -4.4560    6.1885 C   0  0  0  0  0  0  0  0  0  0  0  0
   -6.3240   -3.8983    6.3607 Cl  0  0  0  0  0  0  0  0  0  0  0  0
   -6.8993   -5.1550    3.2374 C   0  0  0  0  0  0  0  0  0  0  0  0
   -6.1656   -5.6987    2.1532 C   0  0  0  0  0  0  0  0  0  0  0  0
   -6.0614   -7.0913    1.9940 C   0  0  0  0  0  0  0  0  0  0  0  0
   -5.2447   -7.6632    0.9368 C   0  0  0  0  0  0  0  0  0  0  0  0
   -5.8738   -8.8596   -0.1561 S   0  0  0  0  0  0  0  0  0  0  0  0
   -4.3752   -8.9778   -1.0134 C   0  0  0  0  0  0  0  0  0  0  0  0
   -4.2352   -9.8577   -2.2059 C   0  0  0  0  0  0  0  0  0  0  0  0
   -4.7525   -9.1588   -3.4655 C   0  0  0  0  0  0  0  0  0  0  0  0
   -3.4522   -8.1332   -0.4724 C   0  0  0  0  0  0  0  0  0  0  0  0
   -3.9384   -7.3885    0.6351 C   0  0  0  0  0  0  0  0  0  0  0  0
   -2.9362   -6.3186    1.5321 Cl  0  0  0  0  0  0  0  0  0  0  0  0
   -1.8415   -7.9793   -1.0430 Cl  0  0  0  0  0  0  0  0  0  0  0  0
   -6.7482   -7.8796    2.9059 C   0  0  0  0  0  0  0  0  0  0  0  0
   -6.7541   -9.6177    2.9377 S   0  0  0  0  0  0  0  0  0  0  0  0
   -5.6186   -4.6913    1.3282 C   0  0  0  0  0  0  0  0  0  0  0  0
   -5.8763   -3.4237    1.7680 C   0  0  0  0  0  0  0  0  0  0  0  0
   -6.8624   -3.4149    3.2113 S   0  0  0  0  0  0  0  0  0  0  0  0
   -5.3438   -2.2242    1.2069 C   0  0  0  0  0  0  0  0  0  0  0  0
   -4.5636   -2.1479    0.0878 C   0  0  0  0  0  0  0  0  0  0  0  0
   -4.0420   -0.8585   -0.1532 C   0  0  0  0  0  0  0  0  0  0  0  0
   -3.1426   -0.4702   -1.1641 C   0  0  0  0  0  0  0  0  0  0  0  0
   -2.6669   -1.4170   -2.1587 C   0  0  0  0  0  0  0  0  0  0  0  0
   -2.0099   -2.9624   -1.6979 S   0  0  0  0  0  0  0  0  0  0  0  0
   -1.6923   -3.4101   -3.3374 C   0  0  0  0  0  0  0  0  0  0  0  0
   -1.1567   -4.7565   -3.6785 C   0  0  0  0  0  0  0  0  0  0  0  0
   -2.2978   -5.7591   -3.8690 C   0  0  0  0  0  0  0  0  0  0  0  0
   -2.0805   -2.4134   -4.1819 C   0  0  0  0  0  0  0  0  0  0  0  0
   -1.9334   -2.4984   -5.8892 Cl  0  0  0  0  0  0  0  0  0  0  0  0
   -2.6256   -1.2808   -3.5194 C   0  0  0  0  0  0  0  0  0  0  0  0
   -3.2527    0.0639   -4.3759 Cl  0  0  0  0  0  0  0  0  0  0  0  0
   -2.6925    0.8419   -1.1255 C   0  0  0  0  0  0  0  0  0  0  0  0
   -3.1266    1.7772   -0.1521 C   0  0  0  0  0  0  0  0  0  0  0  0
   -4.0868    1.4091    0.8101 C   0  0  0  0  0  0  0  0  0  0  0  0
   -4.6236    2.3775    1.7521 C   0  0  0  0  0  0  0  0  0  0  0  0
   -3.6057    3.3914    2.7338 S   0  0  0  0  0  0  0  0  0  0  0  0
   -4.9561    4.2181    3.4327 C   0  0  0  0  0  0  0  0  0  0  0  0
   -4.7569    5.3564    4.3710 C   0  0  0  0  0  0  0  0  0  0  0  0
   -4.2528    6.5928    3.6226 C   0  0  0  0  0  0  0  0  0  0  0  0
   -6.1212    3.7203    2.9311 C   0  0  0  0  0  0  0  0  0  0  0  0
   -5.9385    2.6744    1.9865 C   0  0  0  0  0  0  0  0  0  0  0  0
   -7.2535    1.9480    1.1632 Cl  0  0  0  0  0  0  0  0  0  0  0  0
   -7.6781    4.2893    3.3745 Cl  0  0  0  0  0  0  0  0  0  0  0  0
   -4.5009    0.0833    0.8023 C   0  0  0  0  0  0  0  0  0  0  0  0
   -5.5348   -0.6701    1.9832 S   0  0  0  0  0  0  0  0  0  0  0  0
   -2.4622    3.0174   -0.2759 C   0  0  0  0  0  0  0  0  0  0  0  0
   -1.5410    3.0544   -1.2838 C   0  0  0  0  0  0  0  0  0  0  0  0
   -1.4805    1.5333   -2.1619 S   0  0  0  0  0  0  0  0  0  0  0  0
   -0.5963    4.0658   -1.6120 C   0  0  0  0  0  0  0  0  0  0  0  0
    0.7633    3.5783   -2.5903 S   0  0  0  0  0  0  0  0  0  0  0  0
    1.5749    5.1072   -2.4083 C   0  0  0  0  0  0  0  0  0  0  0  0
    0.7928    5.9421   -1.6463 C   0  0  0  0  0  0  0  0  0  0  0  0
    1.0554    7.5615   -1.0953 S   0  0  0  0  0  0  0  0  0  0  0  0
   -0.5135    7.5543   -0.2945 C   0  0  0  0  0  0  0  0  0  0  0  0
   -0.9006    8.7109    0.4427 C   0  0  0  0  0  0  0  0  0  0  0  0
   -0.1721    9.8812    0.5438 C   0  0  0  0  0  0  0  0  0  0  0  0
   -0.7636   10.8254    1.3818 C   0  0  0  0  0  0  0  0  0  0  0  0
   -1.9431   10.3814    1.9299 C   0  0  0  0  0  0  0  0  0  0  0  0
   -2.8360   11.0462    2.8723 C   0  0  0  0  0  0  0  0  0  0  0  0
   -3.8181   10.5305    3.3526 O   0  0  0  0  0  0  0  0  0  0  0  0
   -2.4308   12.2984    3.1354 O   0  0  0  0  0  0  0  0  0  0  0  0
   -3.2142   13.0392    4.0710 C   0  0  0  0  0  0  0  0  0  0  0  0
   -2.8316   12.7062    5.5060 C   0  0  0  0  0  0  0  0  0  0  0  0
   -2.3459    8.7888    1.4012 S   0  0  0  0  0  0  0  0  0  0  0  0
   -1.1798    6.3657   -0.4642 C   0  0  0  0  0  0  0  0  0  0  0  0
   -0.4477    5.3914   -1.2047 C   0  0  0  0  0  0  0  0  0  0  0  0
   -2.7860    6.1886    0.1078 Cl  0  0  0  0  0  0  0  0  0  0  0  0
    2.8715    5.3156   -2.9447 C   0  0  0  0  0  0  0  0  0  0  0  0
    3.5966    4.4373   -3.6990 C   0  0  0  0  0  0  0  0  0  0  0  0
    4.8996    4.8953   -3.9990 C   0  0  0  0  0  0  0  0  0  0  0  0
    5.9020    4.2396   -4.7365 C   0  0  0  0  0  0  0  0  0  0  0  0
    5.6986    2.8957   -5.2486 C   0  0  0  0  0  0  0  0  0  0  0  0
    5.9791    2.5110   -6.9204 S   0  0  0  0  0  0  0  0  0  0  0  0
    5.5215    0.8579   -6.6971 C   0  0  0  0  0  0  0  0  0  0  0  0
    5.5851   -0.1179   -7.8194 C   0  0  0  0  0  0  0  0  0  0  0  0
    6.9977   -0.6897   -7.9619 C   0  0  0  0  0  0  0  0  0  0  0  0
    5.1901    0.6285   -5.3948 C   0  0  0  0  0  0  0  0  0  0  0  0
    4.6908   -0.8968   -4.7878 Cl  0  0  0  0  0  0  0  0  0  0  0  0
    5.2849    1.7815   -4.5709 C   0  0  0  0  0  0  0  0  0  0  0  0
    4.9899    1.7305   -2.8802 Cl  0  0  0  0  0  0  0  0  0  0  0  0
    7.0925    4.9263   -4.9284 C   0  0  0  0  0  0  0  0  0  0  0  0
    7.3354    6.2173   -4.3962 C   0  0  0  0  0  0  0  0  0  0  0  0
    6.3279    6.8789   -3.6702 C   0  0  0  0  0  0  0  0  0  0  0  0
    6.5094    8.2260   -3.1578 C   0  0  0  0  0  0  0  0  0  0  0  0
    6.1265    8.6145   -1.5069 S   0  0  0  0  0  0  0  0  0  0  0  0
    6.5223   10.2851   -1.7247 C   0  0  0  0  0  0  0  0  0  0  0  0
    6.3415   11.2626   -0.6168 C   0  0  0  0  0  0  0  0  0  0  0  0
    4.8560   11.5403   -0.3759 C   0  0  0  0  0  0  0  0  0  0  0  0
    6.9234   10.5127   -3.0069 C   0  0  0  0  0  0  0  0  0  0  0  0
    6.9252    9.3480   -3.8213 C   0  0  0  0  0  0  0  0  0  0  0  0
    7.3264    9.3989   -5.4908 Cl  0  0  0  0  0  0  0  0  0  0  0  0
    7.3745   12.0537   -3.6107 Cl  0  0  0  0  0  0  0  0  0  0  0  0
    5.1399    6.1887   -3.4731 C   0  0  0  0  0  0  0  0  0  0  0  0
    3.7531    6.7906   -2.6053 S   0  0  0  0  0  0  0  0  0  0  0  0
    8.6574    6.6515   -4.6511 C   0  0  0  0  0  0  0  0  0  0  0  0
    9.3955    5.7570   -5.3721 C   0  0  0  0  0  0  0  0  0  0  0  0
    8.4899    4.3115   -5.7613 S   0  0  0  0  0  0  0  0  0  0  0  0
   10.7488    5.9048   -5.8030 C   0  0  0  0  0  0  0  0  0  0  0  0
   11.5772    6.9624   -5.5631 C   0  0  0  0  0  0  0  0  0  0  0  0
   12.8604    6.8180   -6.1436 C   0  0  0  0  0  0  0  0  0  0  0  0
   13.9312    7.7271   -6.1138 C   0  0  0  0  0  0  0  0  0  0  0  0
   13.8102    9.0061   -5.4333 C   0  0  0  0  0  0  0  0  0  0  0  0
   12.5050   10.0970   -5.7996 S   0  0  0  0  0  0  0  0  0  0  0  0
   13.0571   11.2713   -4.6535 C   0  0  0  0  0  0  0  0  0  0  0  0
   12.2923   12.5269   -4.4202 C   0  0  0  0  0  0  0  0  0  0  0  0
   10.9600   12.2370   -3.7267 C   0  0  0  0  0  0  0  0  0  0  0  0
   14.1843   10.8275   -4.0302 C   0  0  0  0  0  0  0  0  0  0  0  0
   15.0238   11.7084   -2.8200 Cl  0  0  0  0  0  0  0  0  0  0  0  0
   14.6180    9.5478   -4.4731 C   0  0  0  0  0  0  0  0  0  0  0  0
   15.9694    8.7497   -3.7857 Cl  0  0  0  0  0  0  0  0  0  0  0  0
   15.0912    7.3557   -6.7831 C   0  0  0  0  0  0  0  0  0  0  0  0
   15.2268    6.1199   -7.4613 C   0  0  0  0  0  0  0  0  0  0  0  0
   14.1653    5.2025   -7.4705 C   0  0  0  0  0  0  0  0  0  0  0  0
   14.2644    3.9203   -8.1514 C   0  0  0  0  0  0  0  0  0  0  0  0
   14.6681    3.8159   -9.8393 S   0  0  0  0  0  0  0  0  0  0  0  0
   14.5272    2.0904   -9.8482 C   0  0  0  0  0  0  0  0  0  0  0  0
   14.8112    1.2998  -11.0773 C   0  0  0  0  0  0  0  0  0  0  0  0
   16.3178    1.1261  -11.2821 C   0  0  0  0  0  0  0  0  0  0  0  0
   14.1986    1.6375   -8.6060 C   0  0  0  0  0  0  0  0  0  0  0  0
   14.0410    2.6713   -7.6434 C   0  0  0  0  0  0  0  0  0  0  0  0
   13.6858    2.3494   -5.9982 Cl  0  0  0  0  0  0  0  0  0  0  0  0
   13.9825   -0.0193   -8.2161 Cl  0  0  0  0  0  0  0  0  0  0  0  0
   12.9993    5.5785   -6.8153 C   0  0  0  0  0  0  0  0  0  0  0  0
   11.5267    4.6558   -6.7484 S   0  0  0  0  0  0  0  0  0  0  0  0
   16.5094    5.9945   -8.0701 C   0  0  0  0  0  0  0  0  0  0  0  0
   17.2834    7.0838   -7.8878 C   0  0  0  0  0  0  0  0  0  0  0  0
   16.5248    8.3267   -6.9570 S   0  0  0  0  0  0  0  0  0  0  0  0
  -10.1652  -17.6485    8.7622 H   0  0  0  0  0  0  0  0  0  0  0  0
   -9.0252  -17.3773    6.4373 H   0  0  0  0  0  0  0  0  0  0  0  0
   -6.0496  -17.4849    0.9060 H   0  0  0  0  0  0  0  0  0  0  0  0
   -7.1570  -16.1950    0.3971 H   0  0  0  0  0  0  0  0  0  0  0  0
   -9.1020  -17.6893    0.8633 H   0  0  0  0  0  0  0  0  0  0  0  0
   -8.0068  -18.4163   -0.3180 H   0  0  0  0  0  0  0  0  0  0  0  0
   -7.9955  -18.9749    1.3574 H   0  0  0  0  0  0  0  0  0  0  0  0
   -8.9560   -9.5122   12.0583 H   0  0  0  0  0  0  0  0  0  0  0  0
  -10.6867   -9.4929   12.4472 H   0  0  0  0  0  0  0  0  0  0  0  0
   -9.8971   -7.2340   11.7626 H   0  0  0  0  0  0  0  0  0  0  0  0
   -9.3556   -7.8838   10.2110 H   0  0  0  0  0  0  0  0  0  0  0  0
  -11.0785   -7.8588   10.6073 H   0  0  0  0  0  0  0  0  0  0  0  0
   -9.0767  -10.2343    6.8114 H   0  0  0  0  0  0  0  0  0  0  0  0
   -8.6299   -8.1519    5.6798 H   0  0  0  0  0  0  0  0  0  0  0  0
  -12.2934   -4.5719    6.8233 H   0  0  0  0  0  0  0  0  0  0  0  0
  -11.4884   -3.5174    8.0014 H   0  0  0  0  0  0  0  0  0  0  0  0
  -11.5952   -6.5713    8.1428 H   0  0  0  0  0  0  0  0  0  0  0  0
  -12.5560   -5.4622    9.1278 H   0  0  0  0  0  0  0  0  0  0  0  0
  -10.8004   -5.5167    9.3183 H   0  0  0  0  0  0  0  0  0  0  0  0
   -3.1808  -10.1092   -2.3336 H   0  0  0  0  0  0  0  0  0  0  0  0
   -4.7985  -10.7780   -2.0444 H   0  0  0  0  0  0  0  0  0  0  0  0
   -4.1938   -8.2443   -3.6468 H   0  0  0  0  0  0  0  0  0  0  0  0
   -5.8041   -8.9076   -3.3510 H   0  0  0  0  0  0  0  0  0  0  0  0
   -4.6413   -9.8118   -4.3268 H   0  0  0  0  0  0  0  0  0  0  0  0
   -5.0490   -4.9013    0.4437 H   0  0  0  0  0  0  0  0  0  0  0  0
   -4.3524   -2.9955   -0.5348 H   0  0  0  0  0  0  0  0  0  0  0  0
   -0.5763   -4.6834   -4.6001 H   0  0  0  0  0  0  0  0  0  0  0  0
   -0.5024   -5.1016   -2.8766 H   0  0  0  0  0  0  0  0  0  0  0  0
   -1.8939   -6.7387   -4.1107 H   0  0  0  0  0  0  0  0  0  0  0  0
   -2.9513   -5.4389   -4.6769 H   0  0  0  0  0  0  0  0  0  0  0  0
   -2.8830   -5.8389   -2.9557 H   0  0  0  0  0  0  0  0  0  0  0  0
   -4.0318    5.0772    5.1385 H   0  0  0  0  0  0  0  0  0  0  0  0
   -5.7094    5.5781    4.8545 H   0  0  0  0  0  0  0  0  0  0  0  0
   -4.9543    6.8775    2.8428 H   0  0  0  0  0  0  0  0  0  0  0  0
   -3.2888    6.3878    3.1630 H   0  0  0  0  0  0  0  0  0  0  0  0
   -4.1428    7.4321    4.3030 H   0  0  0  0  0  0  0  0  0  0  0  0
   -2.6267    3.8342    0.3951 H   0  0  0  0  0  0  0  0  0  0  0  0
    0.7580   10.0301    0.0242 H   0  0  0  0  0  0  0  0  0  0  0  0
   -0.3535   11.7959    1.5926 H   0  0  0  0  0  0  0  0  0  0  0  0
   -4.2730   12.8172    3.9011 H   0  0  0  0  0  0  0  0  0  0  0  0
   -3.0107   14.0870    3.8408 H   0  0  0  0  0  0  0  0  0  0  0  0
   -3.4039   13.3278    6.1885 H   0  0  0  0  0  0  0  0  0  0  0  0
   -1.7708   12.8852    5.6647 H   0  0  0  0  0  0  0  0  0  0  0  0
   -3.0497   11.6616    5.7144 H   0  0  0  0  0  0  0  0  0  0  0  0
    3.1977    3.4951   -4.0270 H   0  0  0  0  0  0  0  0  0  0  0  0
    4.8800   -0.9272   -7.6211 H   0  0  0  0  0  0  0  0  0  0  0  0
    5.2984    0.3781   -8.7482 H   0  0  0  0  0  0  0  0  0  0  0  0
    7.0322   -1.3986   -8.7847 H   0  0  0  0  0  0  0  0  0  0  0  0
    7.7096    0.1088   -8.1569 H   0  0  0  0  0  0  0  0  0  0  0  0
    7.2908   -1.2009   -7.0485 H   0  0  0  0  0  0  0  0  0  0  0  0
    6.7860   10.8637    0.2973 H   0  0  0  0  0  0  0  0  0  0  0  0
    6.8554   12.1885   -0.8795 H   0  0  0  0  0  0  0  0  0  0  0  0
    4.7358   12.2530    0.4355 H   0  0  0  0  0  0  0  0  0  0  0  0
    4.3401   10.6192   -0.1146 H   0  0  0  0  0  0  0  0  0  0  0  0
    4.3993   11.9517   -1.2726 H   0  0  0  0  0  0  0  0  0  0  0  0
    9.0495    7.5857   -4.2971 H   0  0  0  0  0  0  0  0  0  0  0  0
   11.2813    7.8200   -4.9895 H   0  0  0  0  0  0  0  0  0  0  0  0
   12.8972   13.1923   -3.8026 H   0  0  0  0  0  0  0  0  0  0  0  0
   12.0992   13.0188   -5.3761 H   0  0  0  0  0  0  0  0  0  0  0  0
   10.3495   11.5822   -4.3436 H   0  0  0  0  0  0  0  0  0  0  0  0
   11.1283   11.7541   -2.7670 H   0  0  0  0  0  0  0  0  0  0  0  0
   10.4162   13.1626   -3.5590 H   0  0  0  0  0  0  0  0  0  0  0  0
   14.3846    1.8086  -11.9437 H   0  0  0  0  0  0  0  0  0  0  0  0
   14.3386    0.3214  -10.9779 H   0  0  0  0  0  0  0  0  0  0  0  0
   16.7579    0.6160  -10.4291 H   0  0  0  0  0  0  0  0  0  0  0  0
   16.5078    0.5376  -12.1756 H   0  0  0  0  0  0  0  0  0  0  0  0
   16.7971    2.0956  -11.3941 H   0  0  0  0  0  0  0  0  0  0  0  0
   16.8232    5.1247   -8.6169 H   0  0  0  0  0  0  0  0  0  0  0  0
   18.2826    7.2477   -8.2415 H   0  0  0  0  0  0  0  0  0  0  0  0
  1  2  2  0  0  0  0
  2  3  1  0  0  0  0
  3  4  2  0  0  0  0
  4  5  1  0  0  0  0
  5  6  1  0  0  0  0
  6  7  1  0  0  0  0
  7  8  1  0  0  0  0
  8  9  1  0  0  0  0
  7 10  2  0  0  0  0
 10 11  1  0  0  0  0
 10 12  1  0  0  0  0
 12 13  1  0  0  0  0
  4 14  1  0  0  0  0
 14 15  2  0  0  0  0
 15 16  1  0  0  0  0
 16 17  1  0  0  0  0
 17 18  1  0  0  0  0
 18 19  1  0  0  0  0
 19 20  1  0  0  0  0
 20 21  1  0  0  0  0
 19 22  2  0  0  0  0
 22 23  1  0  0  0  0
 23 24  1  0  0  0  0
 22 25  1  0  0  0  0
 16 26  2  0  0  0  0
 26 27  1  0  0  0  0
 15 28  1  0  0  0  0
 28 29  2  0  0  0  0
 29 30  1  0  0  0  0
 29 31  1  0  0  0  0
 31 32  2  0  0  0  0
 32 33  1  0  0  0  0
 33 34  2  0  0  0  0
 34 35  1  0  0  0  0
 35 36  1  0  0  0  0
 36 37  1  0  0  0  0
 37 38  1  0  0  0  0
 38 39  1  0  0  0  0
 37 40  2  0  0  0  0
 40 41  1  0  0  0  0
 40 42  1  0  0  0  0
 42 43  1  0  0  0  0
 34 44  1  0  0  0  0
 44 45  2  0  0  0  0
 45 46  1  0  0  0  0
 46 47  1  0  0  0  0
 47 48  1  0  0  0  0
 48 49  1  0  0  0  0
 49 50  1  0  0  0  0
 50 51  1  0  0  0  0
 49 52  2  0  0  0  0
 52 53  1  0  0  0  0
 53 54  1  0  0  0  0
 52 55  1  0  0  0  0
 46 56  2  0  0  0  0
 56 57  1  0  0  0  0
 45 58  1  0  0  0  0
 58 59  2  0  0  0  0
 59 60  1  0  0  0  0
 59 61  1  0  0  0  0
 61 62  2  0  0  0  0
 62 63  1  0  0  0  0
 63 64  2  0  0  0  0
 64 65  1  0  0  0  0
 65 66  1  0  0  0  0
 66 67  1  0  0  0  0
 67 68  1  0  0  0  0
 68 69  1  0  0  0  0
 67 70  2  0  0  0  0
 70 71  1  0  0  0  0
 70 72  1  0  0  0  0
 72 73  1  0  0  0  0
 64 74  1  0  0  0  0
 74 75  2  0  0  0  0
 75 76  1  0  0  0  0
 76 77  1  0  0  0  0
 77 78  1  0  0  0  0
 78 79  1  0  0  0  0
 79 80  1  0  0  0  0
 80 81  1  0  0  0  0
 79 82  2  0  0  0  0
 82 83  1  0  0  0  0
 83 84  1  0  0  0  0
 82 85  1  0  0  0  0
 76 86  2  0  0  0  0
 86 87  1  0  0  0  0
 75 88  1  0  0  0  0
 88 89  2  0  0  0  0
 89 90  1  0  0  0  0
 89 91  1  0  0  0  0
 91 92  1  0  0  0  0
 92 93  1  0  0  0  0
 93 94  2  0  0  0  0
 94 95  1  0  0  0  0
 95 96  1  0  0  0  0
 96 97  1  0  0  0  0
 97 98  2  0  0  0  0
 98 99  1  0  0  0  0
 99100  2  0  0  0  0
100101  1  0  0  0  0
101102  2  0  0  0  0
101103  1  0  0  0  0
103104  1  0  0  0  0
104105  1  0  0  0  0
100106  1  0  0  0  0
 96107  2  0  0  0  0
107108  1  0  0  0  0
107109  1  0  0  0  0
 93110  1  0  0  0  0
110111  2  0  0  0  0
111112  1  0  0  0  0
112113  2  0  0  0  0
113114  1  0  0  0  0
114115  1  0  0  0  0
115116  1  0  0  0  0
116117  1  0  0  0  0
117118  1  0  0  0  0
116119  2  0  0  0  0
119120  1  0  0  0  0
119121  1  0  0  0  0
121122  1  0  0  0  0
113123  1  0  0  0  0
123124  2  0  0  0  0
124125  1  0  0  0  0
125126  1  0  0  0  0
126127  1  0  0  0  0
127128  1  0  0  0  0
128129  1  0  0  0  0
129130  1  0  0  0  0
128131  2  0  0  0  0
131132  1  0  0  0  0
132133  1  0  0  0  0
131134  1  0  0  0  0
125135  2  0  0  0  0
135136  1  0  0  0  0
124137  1  0  0  0  0
137138  2  0  0  0  0
138139  1  0  0  0  0
138140  1  0  0  0  0
140141  2  0  0  0  0
141142  1  0  0  0  0
142143  2  0  0  0  0
143144  1  0  0  0  0
144145  1  0  0  0  0
145146  1  0  0  0  0
146147  1  0  0  0  0
147148  1  0  0  0  0
146149  2  0  0  0  0
149150  1  0  0  0  0
149151  1  0  0  0  0
151152  1  0  0  0  0
143153  1  0  0  0  0
153154  2  0  0  0  0
154155  1  0  0  0  0
155156  1  0  0  0  0
156157  1  0  0  0  0
157158  1  0  0  0  0
158159  1  0  0  0  0
159160  1  0  0  0  0
158161  2  0  0  0  0
161162  1  0  0  0  0
162163  1  0  0  0  0
161164  1  0  0  0  0
155165  2  0  0  0  0
165166  1  0  0  0  0
154167  1  0  0  0  0
167168  2  0  0  0  0
168169  1  0  0  0  0
 27  1  1  0  0  0  0
 57 31  1  0  0  0  0
 87 61  1  0  0  0  0
108 91  2  0  0  0  0
136110  1  0  0  0  0
166140  1  0  0  0  0
 26  3  1  0  0  0  0
 56 33  1  0  0  0  0
 86 63  1  0  0  0  0
108 94  1  0  0  0  0
135112  1  0  0  0  0
165142  1  0  0  0  0
 12  5  2  0  0  0  0
 30 14  1  0  0  0  0
 42 35  2  0  0  0  0
 60 44  1  0  0  0  0
 72 65  2  0  0  0  0
 90 74  1  0  0  0  0
106 97  1  0  0  0  0
121114  2  0  0  0  0
139123  1  0  0  0  0
151144  2  0  0  0  0
169153  1  0  0  0  0
 23 17  2  0  0  0  0
 53 47  2  0  0  0  0
 83 77  2  0  0  0  0
132126  2  0  0  0  0
162156  2  0  0  0  0
  1170  1  0  0  0  0
  2171  1  0  0  0  0
  8172  1  0  0  0  0
  8173  1  0  0  0  0
  9174  1  0  0  0  0
  9175  1  0  0  0  0
  9176  1  0  0  0  0
 20177  1  0  0  0  0
 20178  1  0  0  0  0
 21179  1  0  0  0  0
 21180  1  0  0  0  0
 21181  1  0  0  0  0
 28182  1  0  0  0  0
 32183  1  0  0  0  0
 38184  1  0  0  0  0
 38185  1  0  0  0  0
 39186  1  0  0  0  0
 39187  1  0  0  0  0
 39188  1  0  0  0  0
 50189  1  0  0  0  0
 50190  1  0  0  0  0
 51191  1  0  0  0  0
 51192  1  0  0  0  0
 51193  1  0  0  0  0
 58194  1  0  0  0  0
 62195  1  0  0  0  0
 68196  1  0  0  0  0
 68197  1  0  0  0  0
 69198  1  0  0  0  0
 69199  1  0  0  0  0
 69200  1  0  0  0  0
 80201  1  0  0  0  0
 80202  1  0  0  0  0
 81203  1  0  0  0  0
 81204  1  0  0  0  0
 81205  1  0  0  0  0
 88206  1  0  0  0  0
 98207  1  0  0  0  0
 99208  1  0  0  0  0
104209  1  0  0  0  0
104210  1  0  0  0  0
105211  1  0  0  0  0
105212  1  0  0  0  0
105213  1  0  0  0  0
111214  1  0  0  0  0
117215  1  0  0  0  0
117216  1  0  0  0  0
118217  1  0  0  0  0
118218  1  0  0  0  0
118219  1  0  0  0  0
129220  1  0  0  0  0
129221  1  0  0  0  0
130222  1  0  0  0  0
130223  1  0  0  0  0
130224  1  0  0  0  0
137225  1  0  0  0  0
141226  1  0  0  0  0
147227  1  0  0  0  0
147228  1  0  0  0  0
148229  1  0  0  0  0
148230  1  0  0  0  0
148231  1  0  0  0  0
159232  1  0  0  0  0
159233  1  0  0  0  0
160234  1  0  0  0  0
160235  1  0  0  0  0
160236  1  0  0  0  0
167237  1  0  0  0  0
168238  1  0  0  0  0
M  END
