
  xtb     03082201473D
 energy: -412.208969891127 gnorm: 0.000353289584 xtb: 6.4.1 (unknown)
218238  0     0  0            999 V2000
   -0.5435   -1.4323    7.4763 C   0  0  0  0  0  0  0  0  0  0  0  0
   -0.9292   -3.0323    7.8900 S   0  0  0  0  0  0  0  0  0  0  0  0
    0.5455   -3.2603    8.7835 C   0  0  0  0  0  0  0  0  0  0  0  0
    1.2974   -2.0851    8.7647 C   0  0  0  0  0  0  0  0  0  0  0  0
    0.6760   -1.0390    7.9977 C   0  0  0  0  0  0  0  0  0  0  0  0
    1.3117    0.2051    7.8393 C   0  0  0  0  0  0  0  0  0  0  0  0
    2.5489    0.4046    8.4120 C   0  0  0  0  0  0  0  0  0  0  0  0
    3.3146    1.6333    8.2486 C   0  0  0  0  0  0  0  0  0  0  0  0
    4.4551    1.8055    8.6013 O   0  0  0  0  0  0  0  0  0  0  0  0
    2.5826    2.8327    7.5699 C   0  0  0  0  0  0  0  0  0  0  0  0
    2.2506    2.6006    6.2865 F   0  0  0  0  0  0  0  0  0  0  0  0
    3.3468    3.9238    7.5726 F   0  0  0  0  0  0  0  0  0  0  0  0
    1.4396    3.1517    8.2031 F   0  0  0  0  0  0  0  0  0  0  0  0
    3.1670   -0.6396    9.1652 C   0  0  0  0  0  0  0  0  0  0  0  0
    2.5658   -1.8454    9.3420 C   0  0  0  0  0  0  0  0  0  0  0  0
    0.8212   -4.4364    9.5469 C   0  0  0  0  0  0  0  0  0  0  0  0
    0.4761   -5.7268    9.3038 C   0  0  0  0  0  0  0  0  0  0  0  0
   -0.0054   -6.3104    8.1034 C   0  0  0  0  0  0  0  0  0  0  0  0
    0.1853   -5.5826    6.5568 S   0  0  0  0  0  0  0  0  0  0  0  0
   -0.4816   -6.9395    5.6917 C   0  0  0  0  0  0  0  0  0  0  0  0
   -0.8243   -7.9581    6.5862 C   0  0  0  0  0  0  0  0  0  0  0  0
   -0.5480   -7.6051    7.9511 C   0  0  0  0  0  0  0  0  0  0  0  0
   -0.8489   -8.5097    8.9699 C   0  0  0  0  0  0  0  0  0  0  0  0
   -1.3967   -9.7473    8.6707 C   0  0  0  0  0  0  0  0  0  0  0  0
   -1.6740  -10.6234    9.8014 C   0  0  0  0  0  0  0  0  0  0  0  0
   -1.4572  -10.3589   10.9603 O   0  0  0  0  0  0  0  0  0  0  0  0
   -2.3030  -12.0101    9.4761 C   0  0  0  0  0  0  0  0  0  0  0  0
   -3.4863  -11.8965    8.8459 F   0  0  0  0  0  0  0  0  0  0  0  0
   -2.5189  -12.7157   10.5834 F   0  0  0  0  0  0  0  0  0  0  0  0
   -1.5128  -12.7559    8.6831 F   0  0  0  0  0  0  0  0  0  0  0  0
   -1.6556  -10.0974    7.3188 C   0  0  0  0  0  0  0  0  0  0  0  0
   -1.3775   -9.2260    6.3083 C   0  0  0  0  0  0  0  0  0  0  0  0
   -0.5919   -6.7267    4.2978 C   0  0  0  0  0  0  0  0  0  0  0  0
   -1.1299   -7.4689    3.2984 C   0  0  0  0  0  0  0  0  0  0  0  0
   -1.2009   -6.9460    1.9720 C   0  0  0  0  0  0  0  0  0  0  0  0
   -0.7891   -5.7123    1.5479 C   0  0  0  0  0  0  0  0  0  0  0  0
   -1.0622   -5.4473    0.1911 C   0  0  0  0  0  0  0  0  0  0  0  0
   -0.8034   -4.2529   -0.4935 C   0  0  0  0  0  0  0  0  0  0  0  0
   -0.3487   -3.0499    0.2132 C   0  0  0  0  0  0  0  0  0  0  0  0
    0.7384   -2.2916   -0.2146 C   0  0  0  0  0  0  0  0  0  0  0  0
    1.0702   -1.1177    0.4306 C   0  0  0  0  0  0  0  0  0  0  0  0
    0.3236   -0.6477    1.5095 C   0  0  0  0  0  0  0  0  0  0  0  0
    0.7094    0.9628    2.1169 S   0  0  0  0  0  0  0  0  0  0  0  0
    0.4837    0.8636    3.9310 C   0  0  0  0  0  0  0  0  0  0  0  0
   -0.7394    1.6337    4.3893 C   0  0  0  0  0  0  0  0  0  0  0  0
   -0.7406   -1.4301    1.9423 C   0  0  0  0  0  0  0  0  0  0  0  0
   -1.5091   -1.0436    2.9889 F   0  0  0  0  0  0  0  0  0  0  0  0
   -1.0734   -2.6136    1.3193 C   0  0  0  0  0  0  0  0  0  0  0  0
   -1.1287   -4.2336   -1.8379 C   0  0  0  0  0  0  0  0  0  0  0  0
   -1.7857   -5.3003   -2.5004 C   0  0  0  0  0  0  0  0  0  0  0  0
   -2.0765   -6.4831   -1.7972 C   0  0  0  0  0  0  0  0  0  0  0  0
   -2.8084   -7.5923   -2.4217 C   0  0  0  0  0  0  0  0  0  0  0  0
   -4.0196   -7.3749   -3.0773 C   0  0  0  0  0  0  0  0  0  0  0  0
   -4.7163   -8.4283   -3.6280 C   0  0  0  0  0  0  0  0  0  0  0  0
   -4.2318   -9.7344   -3.5647 C   0  0  0  0  0  0  0  0  0  0  0  0
   -5.1965  -10.9862   -4.3556 S   0  0  0  0  0  0  0  0  0  0  0  0
   -5.0285  -12.4509   -3.2699 C   0  0  0  0  0  0  0  0  0  0  0  0
   -5.4882  -12.1658   -1.8545 C   0  0  0  0  0  0  0  0  0  0  0  0
   -3.0086   -9.9307   -2.9307 C   0  0  0  0  0  0  0  0  0  0  0  0
   -2.3136   -8.8895   -2.3495 C   0  0  0  0  0  0  0  0  0  0  0  0
   -2.4485  -11.1584   -2.8660 F   0  0  0  0  0  0  0  0  0  0  0  0
   -1.6748   -6.5406   -0.4676 C   0  0  0  0  0  0  0  0  0  0  0  0
   -1.9296   -7.8574    0.6552 S   0  0  0  0  0  0  0  0  0  0  0  0
   -2.1060   -4.9588   -3.8520 C   0  0  0  0  0  0  0  0  0  0  0  0
   -1.7118   -3.7133   -4.2009 C   0  0  0  0  0  0  0  0  0  0  0  0
   -0.8954   -2.8720   -2.8841 S   0  0  0  0  0  0  0  0  0  0  0  0
   -1.9275   -2.8197   -5.3238 C   0  0  0  0  0  0  0  0  0  0  0  0
   -0.9693   -2.2244   -6.0779 C   0  0  0  0  0  0  0  0  0  0  0  0
   -1.3466   -0.9433   -6.5732 C   0  0  0  0  0  0  0  0  0  0  0  0
   -0.4999    0.0334   -7.1192 C   0  0  0  0  0  0  0  0  0  0  0  0
    0.8883   -0.2367   -7.5245 C   0  0  0  0  0  0  0  0  0  0  0  0
    1.8265   -0.7559   -6.6357 C   0  0  0  0  0  0  0  0  0  0  0  0
    3.1342   -0.9416   -7.0312 C   0  0  0  0  0  0  0  0  0  0  0  0
    3.5541   -0.6303   -8.3228 C   0  0  0  0  0  0  0  0  0  0  0  0
    5.2467   -0.9489   -8.7268 S   0  0  0  0  0  0  0  0  0  0  0  0
    5.7381    0.5021   -9.7304 C   0  0  0  0  0  0  0  0  0  0  0  0
    5.5271    1.8050   -8.9860 C   0  0  0  0  0  0  0  0  0  0  0  0
    2.6001   -0.1312   -9.2043 C   0  0  0  0  0  0  0  0  0  0  0  0
    2.9226    0.1600  -10.4826 F   0  0  0  0  0  0  0  0  0  0  0  0
    1.2941    0.0865   -8.8139 C   0  0  0  0  0  0  0  0  0  0  0  0
   -0.9643    1.3388   -7.0861 C   0  0  0  0  0  0  0  0  0  0  0  0
   -2.2606    1.6865   -6.6417 C   0  0  0  0  0  0  0  0  0  0  0  0
   -3.1699    0.6884   -6.2576 C   0  0  0  0  0  0  0  0  0  0  0  0
   -4.4997    1.0572   -5.7505 C   0  0  0  0  0  0  0  0  0  0  0  0
   -4.9014    0.7256   -4.4577 C   0  0  0  0  0  0  0  0  0  0  0  0
   -6.1364    1.1171   -3.9890 C   0  0  0  0  0  0  0  0  0  0  0  0
   -7.0253    1.8352   -4.7875 C   0  0  0  0  0  0  0  0  0  0  0  0
   -8.6033    2.2157   -4.0870 S   0  0  0  0  0  0  0  0  0  0  0  0
   -8.9961    3.8893   -4.7173 C   0  0  0  0  0  0  0  0  0  0  0  0
   -7.9315    4.9010   -4.3439 C   0  0  0  0  0  0  0  0  0  0  0  0
   -6.6163    2.1421   -6.0818 C   0  0  0  0  0  0  0  0  0  0  0  0
   -5.3690    1.7856   -6.5545 C   0  0  0  0  0  0  0  0  0  0  0  0
   -7.4313    2.8084   -6.9303 F   0  0  0  0  0  0  0  0  0  0  0  0
   -2.6648   -0.6004   -6.1805 C   0  0  0  0  0  0  0  0  0  0  0  0
   -3.4406   -1.9207   -5.3426 S   0  0  0  0  0  0  0  0  0  0  0  0
   -2.3297    3.0464   -6.2323 C   0  0  0  0  0  0  0  0  0  0  0  0
   -1.1279    3.6884   -6.2728 C   0  0  0  0  0  0  0  0  0  0  0  0
    0.0874    2.7409   -7.1374 S   0  0  0  0  0  0  0  0  0  0  0  0
   -0.6854    4.5587   -5.2083 C   0  0  0  0  0  0  0  0  0  0  0  0
   -1.0027    4.1696   -3.9404 C   0  0  0  0  0  0  0  0  0  0  0  0
   -0.1845    4.7361   -2.9402 C   0  0  0  0  0  0  0  0  0  0  0  0
   -0.1040    4.2829   -1.6164 C   0  0  0  0  0  0  0  0  0  0  0  0
   -0.9672    3.1450   -1.2479 C   0  0  0  0  0  0  0  0  0  0  0  0
   -0.4202    1.8669   -1.1792 C   0  0  0  0  0  0  0  0  0  0  0  0
   -1.2394    0.7622   -1.0835 C   0  0  0  0  0  0  0  0  0  0  0  0
   -2.6248    0.8876   -1.0276 C   0  0  0  0  0  0  0  0  0  0  0  0
   -3.5600   -0.6164   -1.0112 S   0  0  0  0  0  0  0  0  0  0  0  0
   -4.9384   -0.2674    0.1437 C   0  0  0  0  0  0  0  0  0  0  0  0
   -4.4416    0.1403    1.5153 C   0  0  0  0  0  0  0  0  0  0  0  0
   -3.1557    2.1729   -1.0696 C   0  0  0  0  0  0  0  0  0  0  0  0
   -4.4918    2.3764   -1.0495 F   0  0  0  0  0  0  0  0  0  0  0  0
   -2.3473    3.2881   -1.1784 C   0  0  0  0  0  0  0  0  0  0  0  0
    0.9110    4.8136   -0.8492 C   0  0  0  0  0  0  0  0  0  0  0  0
    1.7805    5.8311   -1.3261 C   0  0  0  0  0  0  0  0  0  0  0  0
    1.6954    6.2774   -2.6609 C   0  0  0  0  0  0  0  0  0  0  0  0
    2.6020    7.3143   -3.1672 C   0  0  0  0  0  0  0  0  0  0  0  0
    2.7528    8.5182   -2.4788 C   0  0  0  0  0  0  0  0  0  0  0  0
    3.5737    9.5095   -2.9700 C   0  0  0  0  0  0  0  0  0  0  0  0
    4.2923    9.3386   -4.1526 C   0  0  0  0  0  0  0  0  0  0  0  0
    5.3462   10.6662   -4.6530 S   0  0  0  0  0  0  0  0  0  0  0  0
    5.2020   10.7000   -6.4779 C   0  0  0  0  0  0  0  0  0  0  0  0
    3.7678   10.8821   -6.9318 C   0  0  0  0  0  0  0  0  0  0  0  0
    4.1585    8.1188   -4.8093 C   0  0  0  0  0  0  0  0  0  0  0  0
    3.3173    7.1281   -4.3449 C   0  0  0  0  0  0  0  0  0  0  0  0
    4.8622    7.8550   -5.9318 F   0  0  0  0  0  0  0  0  0  0  0  0
    0.7449    5.6617   -3.4662 C   0  0  0  0  0  0  0  0  0  0  0  0
    0.5677    5.7794   -5.2115 S   0  0  0  0  0  0  0  0  0  0  0  0
    2.7651    6.1568   -0.3577 C   0  0  0  0  0  0  0  0  0  0  0  0
    2.6921    5.4043    0.7814 C   0  0  0  0  0  0  0  0  0  0  0  0
    1.3318    4.2923    0.7551 S   0  0  0  0  0  0  0  0  0  0  0  0
    3.5593    5.4548    1.9122 C   0  0  0  0  0  0  0  0  0  0  0  0
    4.3073    6.9339    2.3827 S   0  0  0  0  0  0  0  0  0  0  0  0
    5.1330    6.2134    3.7281 C   0  0  0  0  0  0  0  0  0  0  0  0
    4.8259    4.8600    3.8215 C   0  0  0  0  0  0  0  0  0  0  0  0
    3.9452    4.4187    2.7738 C   0  0  0  0  0  0  0  0  0  0  0  0
    3.6382    3.0590    2.6580 C   0  0  0  0  0  0  0  0  0  0  0  0
    4.1183    2.1536    3.5875 C   0  0  0  0  0  0  0  0  0  0  0  0
    3.7642    0.7625    3.3658 C   0  0  0  0  0  0  0  0  0  0  0  0
    3.2367    0.3272    2.3601 O   0  0  0  0  0  0  0  0  0  0  0  0
    4.0449   -0.2401    4.5140 C   0  0  0  0  0  0  0  0  0  0  0  0
    3.4908   -1.4303    4.2599 F   0  0  0  0  0  0  0  0  0  0  0  0
    3.5336    0.1589    5.6979 F   0  0  0  0  0  0  0  0  0  0  0  0
    5.3536   -0.4507    4.7171 F   0  0  0  0  0  0  0  0  0  0  0  0
    4.8906    2.6121    4.6921 C   0  0  0  0  0  0  0  0  0  0  0  0
    5.2338    3.9229    4.8038 C   0  0  0  0  0  0  0  0  0  0  0  0
    5.9932    7.0597    4.5109 C   0  0  0  0  0  0  0  0  0  0  0  0
    7.0362    6.6725    5.2425 C   0  0  0  0  0  0  0  0  0  0  0  0
   -1.2180   -0.8558    6.8748 H   0  0  0  0  0  0  0  0  0  0  0  0
    0.8180    0.9592    7.2491 H   0  0  0  0  0  0  0  0  0  0  0  0
    4.1382   -0.4336    9.5870 H   0  0  0  0  0  0  0  0  0  0  0  0
    3.0503   -2.6257    9.9079 H   0  0  0  0  0  0  0  0  0  0  0  0
    1.3554   -4.2427   10.4694 H   0  0  0  0  0  0  0  0  0  0  0  0
    0.6490   -6.4347   10.1041 H   0  0  0  0  0  0  0  0  0  0  0  0
   -0.6656   -8.2646   10.0050 H   0  0  0  0  0  0  0  0  0  0  0  0
   -2.0748  -11.0589    7.0754 H   0  0  0  0  0  0  0  0  0  0  0  0
   -1.5757   -9.5075    5.2881 H   0  0  0  0  0  0  0  0  0  0  0  0
   -0.1908   -5.7621    4.0143 H   0  0  0  0  0  0  0  0  0  0  0  0
   -1.5509   -8.4474    3.4647 H   0  0  0  0  0  0  0  0  0  0  0  0
   -0.2902   -4.9938    2.1703 H   0  0  0  0  0  0  0  0  0  0  0  0
    1.3293   -2.6300   -1.0517 H   0  0  0  0  0  0  0  0  0  0  0  0
    1.9160   -0.5321    0.1103 H   0  0  0  0  0  0  0  0  0  0  0  0
    1.3917    1.3043    4.3469 H   0  0  0  0  0  0  0  0  0  0  0  0
    0.4425   -0.1875    4.2081 H   0  0  0  0  0  0  0  0  0  0  0  0
   -1.6482    1.1866    3.9957 H   0  0  0  0  0  0  0  0  0  0  0  0
   -0.7930    1.6340    5.4761 H   0  0  0  0  0  0  0  0  0  0  0  0
   -0.6799    2.6642    4.0474 H   0  0  0  0  0  0  0  0  0  0  0  0
   -1.9314   -3.1660    1.6707 H   0  0  0  0  0  0  0  0  0  0  0  0
   -4.4319   -6.3784   -3.1214 H   0  0  0  0  0  0  0  0  0  0  0  0
   -5.6611   -8.2593   -4.1209 H   0  0  0  0  0  0  0  0  0  0  0  0
   -5.6713  -13.1883   -3.7510 H   0  0  0  0  0  0  0  0  0  0  0  0
   -3.9998  -12.8025   -3.3031 H   0  0  0  0  0  0  0  0  0  0  0  0
   -5.4521  -13.0815   -1.2679 H   0  0  0  0  0  0  0  0  0  0  0  0
   -6.5090  -11.7890   -1.8529 H   0  0  0  0  0  0  0  0  0  0  0  0
   -4.8462  -11.4277   -1.3776 H   0  0  0  0  0  0  0  0  0  0  0  0
   -1.3691   -9.1013   -1.8728 H   0  0  0  0  0  0  0  0  0  0  0  0
   -2.6043   -5.6289   -4.5291 H   0  0  0  0  0  0  0  0  0  0  0  0
    0.0130   -2.6414   -6.2052 H   0  0  0  0  0  0  0  0  0  0  0  0
    1.5373   -0.9749   -5.6191 H   0  0  0  0  0  0  0  0  0  0  0  0
    3.8644   -1.3291   -6.3379 H   0  0  0  0  0  0  0  0  0  0  0  0
    5.1995    0.4789  -10.6751 H   0  0  0  0  0  0  0  0  0  0  0  0
    6.7966    0.3243   -9.9207 H   0  0  0  0  0  0  0  0  0  0  0  0
    5.9060    2.6321   -9.5827 H   0  0  0  0  0  0  0  0  0  0  0  0
    4.4695    1.9774   -8.7935 H   0  0  0  0  0  0  0  0  0  0  0  0
    6.0532    1.7908   -8.0337 H   0  0  0  0  0  0  0  0  0  0  0  0
    0.5951    0.4872   -9.5319 H   0  0  0  0  0  0  0  0  0  0  0  0
   -4.2321    0.1863   -3.8056 H   0  0  0  0  0  0  0  0  0  0  0  0
   -6.4378    0.8747   -2.9823 H   0  0  0  0  0  0  0  0  0  0  0  0
   -9.9443    4.1196   -4.2313 H   0  0  0  0  0  0  0  0  0  0  0  0
   -9.1528    3.8381   -5.7924 H   0  0  0  0  0  0  0  0  0  0  0  0
   -8.2472    5.8956   -4.6523 H   0  0  0  0  0  0  0  0  0  0  0  0
   -6.9887    4.6723   -4.8373 H   0  0  0  0  0  0  0  0  0  0  0  0
   -7.7667    4.9024   -3.2684 H   0  0  0  0  0  0  0  0  0  0  0  0
   -5.0960    2.0568   -7.5630 H   0  0  0  0  0  0  0  0  0  0  0  0
   -3.2010    3.4674   -5.7627 H   0  0  0  0  0  0  0  0  0  0  0  0
   -1.7196    3.3957   -3.7360 H   0  0  0  0  0  0  0  0  0  0  0  0
    0.6493    1.7388   -1.2346 H   0  0  0  0  0  0  0  0  0  0  0  0
   -0.8194   -0.2303   -1.0797 H   0  0  0  0  0  0  0  0  0  0  0  0
   -5.4774   -1.2140    0.1830 H   0  0  0  0  0  0  0  0  0  0  0  0
   -5.5843    0.4895   -0.2955 H   0  0  0  0  0  0  0  0  0  0  0  0
   -5.2895    0.2887    2.1811 H   0  0  0  0  0  0  0  0  0  0  0  0
   -3.7989   -0.6287    1.9362 H   0  0  0  0  0  0  0  0  0  0  0  0
   -3.8786    1.0707    1.4640 H   0  0  0  0  0  0  0  0  0  0  0  0
   -2.8087    4.2620   -1.2399 H   0  0  0  0  0  0  0  0  0  0  0  0
    2.1939    8.6864   -1.5709 H   0  0  0  0  0  0  0  0  0  0  0  0
    3.6740   10.4463   -2.4443 H   0  0  0  0  0  0  0  0  0  0  0  0
    5.6487    9.7967   -6.8869 H   0  0  0  0  0  0  0  0  0  0  0  0
    5.8148   11.5572   -6.7573 H   0  0  0  0  0  0  0  0  0  0  0  0
    3.7382   10.9862   -8.0144 H   0  0  0  0  0  0  0  0  0  0  0  0
    3.3348   11.7736   -6.4824 H   0  0  0  0  0  0  0  0  0  0  0  0
    3.1591   10.0237   -6.6536 H   0  0  0  0  0  0  0  0  0  0  0  0
    3.2592    6.2021   -4.8948 H   0  0  0  0  0  0  0  0  0  0  0  0
    3.5466    6.8770   -0.5229 H   0  0  0  0  0  0  0  0  0  0  0  0
    3.0290    2.6937    1.8465 H   0  0  0  0  0  0  0  0  0  0  0  0
    5.2243    1.9173    5.4459 H   0  0  0  0  0  0  0  0  0  0  0  0
    5.8013    4.2595    5.6548 H   0  0  0  0  0  0  0  0  0  0  0  0
    5.7643    8.1161    4.4369 H   0  0  0  0  0  0  0  0  0  0  0  0
    7.3573    5.6485    5.3029 H   0  0  0  0  0  0  0  0  0  0  0  0
    7.6199    7.3912    5.7902 H   0  0  0  0  0  0  0  0  0  0  0  0
  1  2  1  0  0  0  0
  2  3  1  0  0  0  0
  3  4  2  0  0  0  0
  4  5  1  0  0  0  0
  5  6  1  0  0  0  0
  6  7  2  0  0  0  0
  7  8  1  0  0  0  0
  8  9  2  0  0  0  0
  8 10  1  0  0  0  0
 10 11  1  0  0  0  0
 10 12  1  0  0  0  0
 10 13  1  0  0  0  0
  7 14  1  0  0  0  0
 14 15  2  0  0  0  0
  3 16  1  0  0  0  0
 16 17  2  0  0  0  0
 17 18  1  0  0  0  0
 18 19  1  0  0  0  0
 19 20  1  0  0  0  0
 20 21  2  0  0  0  0
 21 22  1  0  0  0  0
 22 23  1  0  0  0  0
 23 24  2  0  0  0  0
 24 25  1  0  0  0  0
 25 26  2  0  0  0  0
 25 27  1  0  0  0  0
 27 28  1  0  0  0  0
 27 29  1  0  0  0  0
 27 30  1  0  0  0  0
 24 31  1  0  0  0  0
 31 32  2  0  0  0  0
 20 33  1  0  0  0  0
 33 34  2  0  0  0  0
 34 35  1  0  0  0  0
 35 36  2  0  0  0  0
 36 37  1  0  0  0  0
 37 38  2  0  0  0  0
 38 39  1  0  0  0  0
 39 40  2  0  0  0  0
 40 41  1  0  0  0  0
 41 42  2  0  0  0  0
 42 43  1  0  0  0  0
 43 44  1  0  0  0  0
 44 45  1  0  0  0  0
 42 46  1  0  0  0  0
 46 47  1  0  0  0  0
 46 48  2  0  0  0  0
 38 49  1  0  0  0  0
 49 50  2  0  0  0  0
 50 51  1  0  0  0  0
 51 52  1  0  0  0  0
 52 53  2  0  0  0  0
 53 54  1  0  0  0  0
 54 55  2  0  0  0  0
 55 56  1  0  0  0  0
 56 57  1  0  0  0  0
 57 58  1  0  0  0  0
 55 59  1  0  0  0  0
 59 60  2  0  0  0  0
 59 61  1  0  0  0  0
 51 62  2  0  0  0  0
 62 63  1  0  0  0  0
 50 64  1  0  0  0  0
 64 65  2  0  0  0  0
 65 66  1  0  0  0  0
 65 67  1  0  0  0  0
 67 68  2  0  0  0  0
 68 69  1  0  0  0  0
 69 70  2  0  0  0  0
 70 71  1  0  0  0  0
 71 72  2  0  0  0  0
 72 73  1  0  0  0  0
 73 74  2  0  0  0  0
 74 75  1  0  0  0  0
 75 76  1  0  0  0  0
 76 77  1  0  0  0  0
 74 78  1  0  0  0  0
 78 79  1  0  0  0  0
 78 80  2  0  0  0  0
 70 81  1  0  0  0  0
 81 82  2  0  0  0  0
 82 83  1  0  0  0  0
 83 84  1  0  0  0  0
 84 85  2  0  0  0  0
 85 86  1  0  0  0  0
 86 87  2  0  0  0  0
 87 88  1  0  0  0  0
 88 89  1  0  0  0  0
 89 90  1  0  0  0  0
 87 91  1  0  0  0  0
 91 92  2  0  0  0  0
 91 93  1  0  0  0  0
 83 94  2  0  0  0  0
 94 95  1  0  0  0  0
 82 96  1  0  0  0  0
 96 97  2  0  0  0  0
 97 98  1  0  0  0  0
 97 99  1  0  0  0  0
 99100  2  0  0  0  0
100101  1  0  0  0  0
101102  2  0  0  0  0
102103  1  0  0  0  0
103104  2  0  0  0  0
104105  1  0  0  0  0
105106  2  0  0  0  0
106107  1  0  0  0  0
107108  1  0  0  0  0
108109  1  0  0  0  0
106110  1  0  0  0  0
110111  1  0  0  0  0
110112  2  0  0  0  0
102113  1  0  0  0  0
113114  2  0  0  0  0
114115  1  0  0  0  0
115116  1  0  0  0  0
116117  2  0  0  0  0
117118  1  0  0  0  0
118119  2  0  0  0  0
119120  1  0  0  0  0
120121  1  0  0  0  0
121122  1  0  0  0  0
119123  1  0  0  0  0
123124  2  0  0  0  0
123125  1  0  0  0  0
115126  2  0  0  0  0
126127  1  0  0  0  0
114128  1  0  0  0  0
128129  2  0  0  0  0
129130  1  0  0  0  0
129131  1  0  0  0  0
131132  1  0  0  0  0
132133  1  0  0  0  0
133134  2  0  0  0  0
134135  1  0  0  0  0
135136  1  0  0  0  0
136137  2  0  0  0  0
137138  1  0  0  0  0
138139  2  0  0  0  0
138140  1  0  0  0  0
140141  1  0  0  0  0
140142  1  0  0  0  0
140143  1  0  0  0  0
137144  1  0  0  0  0
144145  2  0  0  0  0
133146  1  0  0  0  0
146147  2  0  0  0  0
  5  1  2  0  0  0  0
 22 18  2  0  0  0  0
 63 35  1  0  0  0  0
 95 67  1  0  0  0  0
127 99  1  0  0  0  0
135131  2  0  0  0  0
 15  4  1  0  0  0  0
 32 21  1  0  0  0  0
 62 37  1  0  0  0  0
 94 69  1  0  0  0  0
126101  1  0  0  0  0
145134  1  0  0  0  0
 48 39  1  0  0  0  0
 66 49  1  0  0  0  0
 80 71  1  0  0  0  0
 98 81  1  0  0  0  0
112103  1  0  0  0  0
130113  1  0  0  0  0
 60 52  1  0  0  0  0
 92 84  1  0  0  0  0
124116  1  0  0  0  0
  1148  1  0  0  0  0
  6149  1  0  0  0  0
 14150  1  0  0  0  0
 15151  1  0  0  0  0
 16152  1  0  0  0  0
 17153  1  0  0  0  0
 23154  1  0  0  0  0
 31155  1  0  0  0  0
 32156  1  0  0  0  0
 33157  1  0  0  0  0
 34158  1  0  0  0  0
 36159  1  0  0  0  0
 40160  1  0  0  0  0
 41161  1  0  0  0  0
 44162  1  0  0  0  0
 44163  1  0  0  0  0
 45164  1  0  0  0  0
 45165  1  0  0  0  0
 45166  1  0  0  0  0
 48167  1  0  0  0  0
 53168  1  0  0  0  0
 54169  1  0  0  0  0
 57170  1  0  0  0  0
 57171  1  0  0  0  0
 58172  1  0  0  0  0
 58173  1  0  0  0  0
 58174  1  0  0  0  0
 60175  1  0  0  0  0
 64176  1  0  0  0  0
 68177  1  0  0  0  0
 72178  1  0  0  0  0
 73179  1  0  0  0  0
 76180  1  0  0  0  0
 76181  1  0  0  0  0
 77182  1  0  0  0  0
 77183  1  0  0  0  0
 77184  1  0  0  0  0
 80185  1  0  0  0  0
 85186  1  0  0  0  0
 86187  1  0  0  0  0
 89188  1  0  0  0  0
 89189  1  0  0  0  0
 90190  1  0  0  0  0
 90191  1  0  0  0  0
 90192  1  0  0  0  0
 92193  1  0  0  0  0
 96194  1  0  0  0  0
100195  1  0  0  0  0
104196  1  0  0  0  0
105197  1  0  0  0  0
108198  1  0  0  0  0
108199  1  0  0  0  0
109200  1  0  0  0  0
109201  1  0  0  0  0
109202  1  0  0  0  0
112203  1  0  0  0  0
117204  1  0  0  0  0
118205  1  0  0  0  0
121206  1  0  0  0  0
121207  1  0  0  0  0
122208  1  0  0  0  0
122209  1  0  0  0  0
122210  1  0  0  0  0
124211  1  0  0  0  0
128212  1  0  0  0  0
136213  1  0  0  0  0
144214  1  0  0  0  0
145215  1  0  0  0  0
146216  1  0  0  0  0
147217  1  0  0  0  0
147218  1  0  0  0  0
M  END
