
  xtb     03012217273D
 energy: -410.253924693150 gnorm: 0.000212181286 xtb: 6.4.1 (unknown)
216239  0     0  0            999 V2000
   -4.1092   -9.8799   13.7334 C   0  0  0  0  0  0  0  0  0  0  0  0
   -4.2598   -8.5618   13.9776 C   0  0  0  0  0  0  0  0  0  0  0  0
   -4.6140   -7.8204   12.8135 C   0  0  0  0  0  0  0  0  0  0  0  0
   -4.7820   -6.4329   12.6828 C   0  0  0  0  0  0  0  0  0  0  0  0
   -4.6354   -5.5251   13.8105 C   0  0  0  0  0  0  0  0  0  0  0  0
   -5.5717   -5.7147   15.2631 S   0  0  0  0  0  0  0  0  0  0  0  0
   -4.8861   -4.2999   15.9866 C   0  0  0  0  0  0  0  0  0  0  0  0
   -5.3255   -3.8202   17.3260 C   0  0  0  0  0  0  0  0  0  0  0  0
   -6.4861   -2.8307   17.1965 C   0  0  0  0  0  0  0  0  0  0  0  0
   -3.9911   -3.7226   15.1369 C   0  0  0  0  0  0  0  0  0  0  0  0
   -3.1105   -2.2963   15.5016 Cl  0  0  0  0  0  0  0  0  0  0  0  0
   -3.8414   -4.4159   13.9063 C   0  0  0  0  0  0  0  0  0  0  0  0
   -2.7046   -3.9333   12.7192 Cl  0  0  0  0  0  0  0  0  0  0  0  0
   -5.0856   -5.9453   11.4183 C   0  0  0  0  0  0  0  0  0  0  0  0
   -5.2003   -6.7850   10.2818 C   0  0  0  0  0  0  0  0  0  0  0  0
   -5.0083   -8.1725   10.4053 C   0  0  0  0  0  0  0  0  0  0  0  0
   -5.0666   -9.0364    9.2381 C   0  0  0  0  0  0  0  0  0  0  0  0
   -4.0918   -8.6938    7.8373 S   0  0  0  0  0  0  0  0  0  0  0  0
   -4.6946  -10.0716    6.9790 C   0  0  0  0  0  0  0  0  0  0  0  0
   -4.2512  -10.3570    5.5864 C   0  0  0  0  0  0  0  0  0  0  0  0
   -4.6571   -9.2337    4.6314 C   0  0  0  0  0  0  0  0  0  0  0  0
   -5.5954  -10.7460    7.7471 C   0  0  0  0  0  0  0  0  0  0  0  0
   -5.8050  -10.1668    9.0289 C   0  0  0  0  0  0  0  0  0  0  0  0
   -6.9457  -10.7936   10.1433 Cl  0  0  0  0  0  0  0  0  0  0  0  0
   -6.4186  -12.1649    7.2417 Cl  0  0  0  0  0  0  0  0  0  0  0  0
   -4.7265   -8.6578   11.6766 C   0  0  0  0  0  0  0  0  0  0  0  0
   -4.3864  -10.3158   12.0840 S   0  0  0  0  0  0  0  0  0  0  0  0
   -5.5241   -6.0505    9.1192 C   0  0  0  0  0  0  0  0  0  0  0  0
   -5.6382   -4.7065    9.3464 C   0  0  0  0  0  0  0  0  0  0  0  0
   -5.3857   -4.2751   11.0214 S   0  0  0  0  0  0  0  0  0  0  0  0
   -5.8236   -3.6705    8.4057 C   0  0  0  0  0  0  0  0  0  0  0  0
   -5.7627   -2.3082    8.6926 C   0  0  0  0  0  0  0  0  0  0  0  0
   -5.6493   -1.7736    9.9183 N   0  0  0  0  0  0  0  0  0  0  0  0
   -5.5341   -0.4720    9.9977 C   0  0  0  0  0  0  0  0  0  0  0  0
   -5.3606    0.0705   11.3835 C   0  0  0  0  0  0  0  0  0  0  0  0
   -3.8862   -0.0079   11.7896 C   0  0  0  0  0  0  0  0  0  0  0  0
   -5.5214    0.3547    8.8206 C   0  0  0  0  0  0  0  0  0  0  0  0
   -5.3981    1.8466    8.8784 C   0  0  0  0  0  0  0  0  0  0  0  0
   -6.7809    2.4879    9.0227 C   0  0  0  0  0  0  0  0  0  0  0  0
   -5.6566   -0.1539    7.6216 N   0  0  0  0  0  0  0  0  0  0  0  0
   -5.7857   -1.4876    7.5297 C   0  0  0  0  0  0  0  0  0  0  0  0
   -5.8964   -2.2182    6.3481 C   0  0  0  0  0  0  0  0  0  0  0  0
   -5.9650   -3.9174    6.6960 S   0  0  0  0  0  0  0  0  0  0  0  0
   -5.8043   -1.6932    5.0418 C   0  0  0  0  0  0  0  0  0  0  0  0
   -5.8478   -2.3704    3.8533 C   0  0  0  0  0  0  0  0  0  0  0  0
   -5.5225   -1.5629    2.7430 C   0  0  0  0  0  0  0  0  0  0  0  0
   -5.3184   -1.9697    1.4116 C   0  0  0  0  0  0  0  0  0  0  0  0
   -5.4510   -3.3621    1.0139 C   0  0  0  0  0  0  0  0  0  0  0  0
   -6.4611   -3.8193   -0.3254 S   0  0  0  0  0  0  0  0  0  0  0  0
   -6.0733   -5.4962   -0.1481 C   0  0  0  0  0  0  0  0  0  0  0  0
   -6.6957   -6.5300   -1.0203 C   0  0  0  0  0  0  0  0  0  0  0  0
   -8.0572   -6.9626   -0.4707 C   0  0  0  0  0  0  0  0  0  0  0  0
   -5.2147   -5.6749    0.8950 C   0  0  0  0  0  0  0  0  0  0  0  0
   -4.6049   -7.2027    1.3803 Cl  0  0  0  0  0  0  0  0  0  0  0  0
   -4.8527   -4.4681    1.5514 C   0  0  0  0  0  0  0  0  0  0  0  0
   -3.7064   -4.4280    2.8303 Cl  0  0  0  0  0  0  0  0  0  0  0  0
   -4.9128   -0.9952    0.5125 C   0  0  0  0  0  0  0  0  0  0  0  0
   -4.7064    0.3562    0.8827 C   0  0  0  0  0  0  0  0  0  0  0  0
   -4.9098    0.7645    2.2144 C   0  0  0  0  0  0  0  0  0  0  0  0
   -4.6156    2.1248    2.6328 C   0  0  0  0  0  0  0  0  0  0  0  0
   -3.0911    2.8644    2.2314 S   0  0  0  0  0  0  0  0  0  0  0  0
   -3.4928    4.3353    3.0497 C   0  0  0  0  0  0  0  0  0  0  0  0
   -2.5528    5.4900    3.0407 C   0  0  0  0  0  0  0  0  0  0  0  0
   -2.2821    5.9741    1.6156 C   0  0  0  0  0  0  0  0  0  0  0  0
   -4.7338    4.2395    3.6036 C   0  0  0  0  0  0  0  0  0  0  0  0
   -5.3706    2.9884    3.3763 C   0  0  0  0  0  0  0  0  0  0  0  0
   -6.9632    2.6641    3.9152 Cl  0  0  0  0  0  0  0  0  0  0  0  0
   -5.4870    5.4957    4.4986 Cl  0  0  0  0  0  0  0  0  0  0  0  0
   -5.3044   -0.2109    3.1200 C   0  0  0  0  0  0  0  0  0  0  0  0
   -5.4612    0.0095    4.8419 S   0  0  0  0  0  0  0  0  0  0  0  0
   -4.1997    1.1215   -0.1924 C   0  0  0  0  0  0  0  0  0  0  0  0
   -3.9535    0.3904   -1.3174 C   0  0  0  0  0  0  0  0  0  0  0  0
   -4.4440   -1.2828   -1.1418 S   0  0  0  0  0  0  0  0  0  0  0  0
   -3.1907    0.8164   -2.4411 C   0  0  0  0  0  0  0  0  0  0  0  0
   -2.6627    0.0428   -3.4331 C   0  0  0  0  0  0  0  0  0  0  0  0
   -1.6895    0.7112   -4.2130 C   0  0  0  0  0  0  0  0  0  0  0  0
   -0.9041    0.1865   -5.2563 C   0  0  0  0  0  0  0  0  0  0  0  0
   -1.0809   -1.1753   -5.7324 C   0  0  0  0  0  0  0  0  0  0  0  0
   -1.0776   -2.5342   -4.6467 S   0  0  0  0  0  0  0  0  0  0  0  0
   -1.3121   -3.6675   -5.9336 C   0  0  0  0  0  0  0  0  0  0  0  0
   -1.4686   -5.1212   -5.6539 C   0  0  0  0  0  0  0  0  0  0  0  0
   -2.8556   -5.4216   -5.0807 C   0  0  0  0  0  0  0  0  0  0  0  0
   -1.3887   -3.0158   -7.1276 C   0  0  0  0  0  0  0  0  0  0  0  0
   -1.6292   -3.7996   -8.6351 Cl  0  0  0  0  0  0  0  0  0  0  0  0
   -1.2496   -1.6054   -7.0195 C   0  0  0  0  0  0  0  0  0  0  0  0
   -1.3757   -0.5657   -8.3753 Cl  0  0  0  0  0  0  0  0  0  0  0  0
    0.0751    1.0169   -5.7841 C   0  0  0  0  0  0  0  0  0  0  0  0
    0.2619    2.3556   -5.3541 C   0  0  0  0  0  0  0  0  0  0  0  0
   -0.5655    2.9026   -4.3544 C   0  0  0  0  0  0  0  0  0  0  0  0
   -0.3907    4.2811   -3.9280 C   0  0  0  0  0  0  0  0  0  0  0  0
   -0.3740    5.5637   -5.1049 S   0  0  0  0  0  0  0  0  0  0  0  0
   -0.1366    6.7797   -3.8984 C   0  0  0  0  0  0  0  0  0  0  0  0
   -0.0721    8.2235   -4.2569 C   0  0  0  0  0  0  0  0  0  0  0  0
   -1.4710    8.8437   -4.2860 C   0  0  0  0  0  0  0  0  0  0  0  0
   -0.0857    6.2116   -2.6610 C   0  0  0  0  0  0  0  0  0  0  0  0
   -0.2209    4.7970   -2.6722 C   0  0  0  0  0  0  0  0  0  0  0  0
   -0.0716    3.8643   -1.2413 Cl  0  0  0  0  0  0  0  0  0  0  0  0
    0.1375    7.1006   -1.2111 Cl  0  0  0  0  0  0  0  0  0  0  0  0
   -1.5104    2.0554   -3.7943 C   0  0  0  0  0  0  0  0  0  0  0  0
   -2.5876    2.4594   -2.4907 S   0  0  0  0  0  0  0  0  0  0  0  0
    1.3961    2.9494   -5.9433 C   0  0  0  0  0  0  0  0  0  0  0  0
    2.0804    2.1066   -6.7785 C   0  0  0  0  0  0  0  0  0  0  0  0
    1.3042    0.5419   -6.9228 S   0  0  0  0  0  0  0  0  0  0  0  0
    3.3140    2.4059   -7.4009 C   0  0  0  0  0  0  0  0  0  0  0  0
    4.0268    3.6050   -7.2884 C   0  0  0  0  0  0  0  0  0  0  0  0
    3.6659    4.7147   -6.6169 N   0  0  0  0  0  0  0  0  0  0  0  0
    4.5033    5.7218   -6.6093 C   0  0  0  0  0  0  0  0  0  0  0  0
    4.0396    6.9355   -5.8593 C   0  0  0  0  0  0  0  0  0  0  0  0
    3.2523    7.8635   -6.7877 C   0  0  0  0  0  0  0  0  0  0  0  0
    5.7566    5.6747   -7.3074 C   0  0  0  0  0  0  0  0  0  0  0  0
    6.7495    6.7962   -7.3056 C   0  0  0  0  0  0  0  0  0  0  0  0
    7.7600    6.5949   -6.1730 C   0  0  0  0  0  0  0  0  0  0  0  0
    6.1221    4.6001   -7.9585 N   0  0  0  0  0  0  0  0  0  0  0  0
    5.2856    3.5530   -7.9527 C   0  0  0  0  0  0  0  0  0  0  0  0
    5.5570    2.3229   -8.5509 C   0  0  0  0  0  0  0  0  0  0  0  0
    4.2211    1.2491   -8.3244 S   0  0  0  0  0  0  0  0  0  0  0  0
    6.7951    1.9951   -9.1462 C   0  0  0  0  0  0  0  0  0  0  0  0
    7.2203    0.8083   -9.6775 C   0  0  0  0  0  0  0  0  0  0  0  0
    8.5707    0.8392  -10.0969 C   0  0  0  0  0  0  0  0  0  0  0  0
    9.3263   -0.1878  -10.6898 C   0  0  0  0  0  0  0  0  0  0  0  0
    8.7192   -1.4607  -11.0379 C   0  0  0  0  0  0  0  0  0  0  0  0
    9.4038   -2.9710  -10.5155 S   0  0  0  0  0  0  0  0  0  0  0  0
    8.1683   -3.8928  -11.3008 C   0  0  0  0  0  0  0  0  0  0  0  0
    8.1282   -5.3775  -11.1970 C   0  0  0  0  0  0  0  0  0  0  0  0
    7.3814   -5.8186   -9.9357 C   0  0  0  0  0  0  0  0  0  0  0  0
    7.2820   -3.0650  -11.9232 C   0  0  0  0  0  0  0  0  0  0  0  0
    5.9212   -3.6152  -12.8127 Cl  0  0  0  0  0  0  0  0  0  0  0  0
    7.5921   -1.6864  -11.7793 C   0  0  0  0  0  0  0  0  0  0  0  0
    6.6758   -0.4505  -12.5407 Cl  0  0  0  0  0  0  0  0  0  0  0  0
   10.6676    0.0787  -10.9371 C   0  0  0  0  0  0  0  0  0  0  0  0
   11.2758    1.3226  -10.6467 C   0  0  0  0  0  0  0  0  0  0  0  0
   10.5165    2.3527  -10.0704 C   0  0  0  0  0  0  0  0  0  0  0  0
   11.0892    3.6495   -9.7412 C   0  0  0  0  0  0  0  0  0  0  0  0
   11.8885    4.6229  -10.9397 S   0  0  0  0  0  0  0  0  0  0  0  0
   12.1567    5.9199   -9.8252 C   0  0  0  0  0  0  0  0  0  0  0  0
   12.9022    7.1454  -10.2245 C   0  0  0  0  0  0  0  0  0  0  0  0
   14.4083    6.9542  -10.0294 C   0  0  0  0  0  0  0  0  0  0  0  0
   11.6619    5.5960   -8.5979 C   0  0  0  0  0  0  0  0  0  0  0  0
   11.0550    4.3127   -8.5461 C   0  0  0  0  0  0  0  0  0  0  0  0
   10.4360    3.6551   -7.0906 Cl  0  0  0  0  0  0  0  0  0  0  0  0
   11.7408    6.6303   -7.2316 Cl  0  0  0  0  0  0  0  0  0  0  0  0
    9.1765    2.0908   -9.8184 C   0  0  0  0  0  0  0  0  0  0  0  0
    8.0418    3.2232   -9.1382 S   0  0  0  0  0  0  0  0  0  0  0  0
   12.6577    1.3263  -10.9946 C   0  0  0  0  0  0  0  0  0  0  0  0
   13.0642    0.1595  -11.5351 C   0  0  0  0  0  0  0  0  0  0  0  0
   11.8087   -1.0244  -11.6560 S   0  0  0  0  0  0  0  0  0  0  0  0
   -3.8473  -10.6528   14.4294 H   0  0  0  0  0  0  0  0  0  0  0  0
   -4.1225   -8.1150   14.9451 H   0  0  0  0  0  0  0  0  0  0  0  0
   -4.4829   -3.3297   17.8178 H   0  0  0  0  0  0  0  0  0  0  0  0
   -5.6377   -4.6725   17.9315 H   0  0  0  0  0  0  0  0  0  0  0  0
   -7.3343   -3.3053   16.7091 H   0  0  0  0  0  0  0  0  0  0  0  0
   -6.1819   -1.9707   16.6055 H   0  0  0  0  0  0  0  0  0  0  0  0
   -6.7952   -2.4868   18.1799 H   0  0  0  0  0  0  0  0  0  0  0  0
   -3.1641  -10.4686    5.5667 H   0  0  0  0  0  0  0  0  0  0  0  0
   -4.7000  -11.2992    5.2678 H   0  0  0  0  0  0  0  0  0  0  0  0
   -5.7374   -9.1105    4.6274 H   0  0  0  0  0  0  0  0  0  0  0  0
   -4.3308   -9.4656    3.6211 H   0  0  0  0  0  0  0  0  0  0  0  0
   -4.2017   -8.2943    4.9366 H   0  0  0  0  0  0  0  0  0  0  0  0
   -5.6584   -6.4824    8.1443 H   0  0  0  0  0  0  0  0  0  0  0  0
   -5.9418   -0.5552   12.0626 H   0  0  0  0  0  0  0  0  0  0  0  0
   -5.7162    1.0976   11.4536 H   0  0  0  0  0  0  0  0  0  0  0  0
   -3.5508   -1.0413   11.7552 H   0  0  0  0  0  0  0  0  0  0  0  0
   -3.7562    0.3669   12.8017 H   0  0  0  0  0  0  0  0  0  0  0  0
   -3.2647    0.5807   11.1173 H   0  0  0  0  0  0  0  0  0  0  0  0
   -4.7539    2.1507    9.7034 H   0  0  0  0  0  0  0  0  0  0  0  0
   -4.9542    2.1798    7.9391 H   0  0  0  0  0  0  0  0  0  0  0  0
   -7.2783    2.1496    9.9296 H   0  0  0  0  0  0  0  0  0  0  0  0
   -6.6876    3.5703    9.0599 H   0  0  0  0  0  0  0  0  0  0  0  0
   -7.4004    2.2216    8.1699 H   0  0  0  0  0  0  0  0  0  0  0  0
   -6.0837   -3.4171    3.7948 H   0  0  0  0  0  0  0  0  0  0  0  0
   -6.8214   -6.1259   -2.0260 H   0  0  0  0  0  0  0  0  0  0  0  0
   -6.0303   -7.3941   -1.0695 H   0  0  0  0  0  0  0  0  0  0  0  0
   -8.4982   -7.7167   -1.1168 H   0  0  0  0  0  0  0  0  0  0  0  0
   -7.9455   -7.3800    0.5267 H   0  0  0  0  0  0  0  0  0  0  0  0
   -8.7301   -6.1101   -0.4182 H   0  0  0  0  0  0  0  0  0  0  0  0
   -1.6077    5.1933    3.5031 H   0  0  0  0  0  0  0  0  0  0  0  0
   -2.9884    6.2952    3.6345 H   0  0  0  0  0  0  0  0  0  0  0  0
   -3.2084    6.2820    1.1365 H   0  0  0  0  0  0  0  0  0  0  0  0
   -1.8343    5.1785    1.0246 H   0  0  0  0  0  0  0  0  0  0  0  0
   -1.6009    6.8207    1.6312 H   0  0  0  0  0  0  0  0  0  0  0  0
   -3.9726    2.1700   -0.1331 H   0  0  0  0  0  0  0  0  0  0  0  0
   -2.9305   -0.9903   -3.5569 H   0  0  0  0  0  0  0  0  0  0  0  0
   -0.7067   -5.4390   -4.9394 H   0  0  0  0  0  0  0  0  0  0  0  0
   -1.3262   -5.6718   -6.5851 H   0  0  0  0  0  0  0  0  0  0  0  0
   -3.0037   -4.8820   -4.1480 H   0  0  0  0  0  0  0  0  0  0  0  0
   -3.6277   -5.1195   -5.7839 H   0  0  0  0  0  0  0  0  0  0  0  0
   -2.9570   -6.4862   -4.8882 H   0  0  0  0  0  0  0  0  0  0  0  0
    0.5413    8.7421   -3.5173 H   0  0  0  0  0  0  0  0  0  0  0  0
    0.3929    8.3303   -5.2381 H   0  0  0  0  0  0  0  0  0  0  0  0
   -1.4077    9.8965   -4.5475 H   0  0  0  0  0  0  0  0  0  0  0  0
   -1.9431    8.7541   -3.3111 H   0  0  0  0  0  0  0  0  0  0  0  0
   -2.0921    8.3376   -5.0211 H   0  0  0  0  0  0  0  0  0  0  0  0
    1.7488    3.9432   -5.7424 H   0  0  0  0  0  0  0  0  0  0  0  0
    3.3831    6.6042   -5.0528 H   0  0  0  0  0  0  0  0  0  0  0  0
    4.8860    7.4681   -5.4265 H   0  0  0  0  0  0  0  0  0  0  0  0
    2.3822    7.3421   -7.1799 H   0  0  0  0  0  0  0  0  0  0  0  0
    2.9195    8.7434   -6.2422 H   0  0  0  0  0  0  0  0  0  0  0  0
    3.8655    8.1872   -7.6261 H   0  0  0  0  0  0  0  0  0  0  0  0
    6.2545    7.7613   -7.2019 H   0  0  0  0  0  0  0  0  0  0  0  0
    7.2838    6.7699   -8.2565 H   0  0  0  0  0  0  0  0  0  0  0  0
    7.2651    6.5879   -5.2036 H   0  0  0  0  0  0  0  0  0  0  0  0
    8.2749    5.6470   -6.3052 H   0  0  0  0  0  0  0  0  0  0  0  0
    8.4963    7.3946   -6.1823 H   0  0  0  0  0  0  0  0  0  0  0  0
    6.5879   -0.0589   -9.7352 H   0  0  0  0  0  0  0  0  0  0  0  0
    9.1477   -5.7654  -11.1704 H   0  0  0  0  0  0  0  0  0  0  0  0
    7.6231   -5.7769  -12.0785 H   0  0  0  0  0  0  0  0  0  0  0  0
    6.3583   -5.4520   -9.9561 H   0  0  0  0  0  0  0  0  0  0  0  0
    7.3619   -6.9033   -9.8737 H   0  0  0  0  0  0  0  0  0  0  0  0
    7.8741   -5.4261   -9.0494 H   0  0  0  0  0  0  0  0  0  0  0  0
   12.6963    7.3711  -11.2719 H   0  0  0  0  0  0  0  0  0  0  0  0
   12.5584    7.9802   -9.6107 H   0  0  0  0  0  0  0  0  0  0  0  0
   14.7655    6.1271  -10.6383 H   0  0  0  0  0  0  0  0  0  0  0  0
   14.9404    7.8562  -10.3191 H   0  0  0  0  0  0  0  0  0  0  0  0
   14.6283    6.7393   -8.9867 H   0  0  0  0  0  0  0  0  0  0  0  0
   13.3043    2.1706  -10.8405 H   0  0  0  0  0  0  0  0  0  0  0  0
   14.0456   -0.0998  -11.8809 H   0  0  0  0  0  0  0  0  0  0  0  0
  1  2  2  0  0  0  0
  2  3  1  0  0  0  0
  3  4  2  0  0  0  0
  4  5  1  0  0  0  0
  5  6  1  0  0  0  0
  6  7  1  0  0  0  0
  7  8  1  0  0  0  0
  8  9  1  0  0  0  0
  7 10  2  0  0  0  0
 10 11  1  0  0  0  0
 10 12  1  0  0  0  0
 12 13  1  0  0  0  0
  4 14  1  0  0  0  0
 14 15  2  0  0  0  0
 15 16  1  0  0  0  0
 16 17  1  0  0  0  0
 17 18  1  0  0  0  0
 18 19  1  0  0  0  0
 19 20  1  0  0  0  0
 20 21  1  0  0  0  0
 19 22  2  0  0  0  0
 22 23  1  0  0  0  0
 23 24  1  0  0  0  0
 22 25  1  0  0  0  0
 16 26  2  0  0  0  0
 26 27  1  0  0  0  0
 15 28  1  0  0  0  0
 28 29  2  0  0  0  0
 29 30  1  0  0  0  0
 29 31  1  0  0  0  0
 31 32  2  0  0  0  0
 32 33  1  0  0  0  0
 33 34  2  0  0  0  0
 34 35  1  0  0  0  0
 35 36  1  0  0  0  0
 34 37  1  0  0  0  0
 37 38  1  0  0  0  0
 38 39  1  0  0  0  0
 37 40  2  0  0  0  0
 40 41  1  0  0  0  0
 41 42  2  0  0  0  0
 42 43  1  0  0  0  0
 42 44  1  0  0  0  0
 44 45  2  0  0  0  0
 45 46  1  0  0  0  0
 46 47  2  0  0  0  0
 47 48  1  0  0  0  0
 48 49  1  0  0  0  0
 49 50  1  0  0  0  0
 50 51  1  0  0  0  0
 51 52  1  0  0  0  0
 50 53  2  0  0  0  0
 53 54  1  0  0  0  0
 53 55  1  0  0  0  0
 55 56  1  0  0  0  0
 47 57  1  0  0  0  0
 57 58  2  0  0  0  0
 58 59  1  0  0  0  0
 59 60  1  0  0  0  0
 60 61  1  0  0  0  0
 61 62  1  0  0  0  0
 62 63  1  0  0  0  0
 63 64  1  0  0  0  0
 62 65  2  0  0  0  0
 65 66  1  0  0  0  0
 66 67  1  0  0  0  0
 65 68  1  0  0  0  0
 59 69  2  0  0  0  0
 69 70  1  0  0  0  0
 58 71  1  0  0  0  0
 71 72  2  0  0  0  0
 72 73  1  0  0  0  0
 72 74  1  0  0  0  0
 74 75  2  0  0  0  0
 75 76  1  0  0  0  0
 76 77  2  0  0  0  0
 77 78  1  0  0  0  0
 78 79  1  0  0  0  0
 79 80  1  0  0  0  0
 80 81  1  0  0  0  0
 81 82  1  0  0  0  0
 80 83  2  0  0  0  0
 83 84  1  0  0  0  0
 83 85  1  0  0  0  0
 85 86  1  0  0  0  0
 77 87  1  0  0  0  0
 87 88  2  0  0  0  0
 88 89  1  0  0  0  0
 89 90  1  0  0  0  0
 90 91  1  0  0  0  0
 91 92  1  0  0  0  0
 92 93  1  0  0  0  0
 93 94  1  0  0  0  0
 92 95  2  0  0  0  0
 95 96  1  0  0  0  0
 96 97  1  0  0  0  0
 95 98  1  0  0  0  0
 89 99  2  0  0  0  0
 99100  1  0  0  0  0
 88101  1  0  0  0  0
101102  2  0  0  0  0
102103  1  0  0  0  0
102104  1  0  0  0  0
104105  2  0  0  0  0
105106  1  0  0  0  0
106107  2  0  0  0  0
107108  1  0  0  0  0
108109  1  0  0  0  0
107110  1  0  0  0  0
110111  1  0  0  0  0
111112  1  0  0  0  0
110113  2  0  0  0  0
113114  1  0  0  0  0
114115  2  0  0  0  0
115116  1  0  0  0  0
115117  1  0  0  0  0
117118  2  0  0  0  0
118119  1  0  0  0  0
119120  2  0  0  0  0
120121  1  0  0  0  0
121122  1  0  0  0  0
122123  1  0  0  0  0
123124  1  0  0  0  0
124125  1  0  0  0  0
123126  2  0  0  0  0
126127  1  0  0  0  0
126128  1  0  0  0  0
128129  1  0  0  0  0
120130  1  0  0  0  0
130131  2  0  0  0  0
131132  1  0  0  0  0
132133  1  0  0  0  0
133134  1  0  0  0  0
134135  1  0  0  0  0
135136  1  0  0  0  0
136137  1  0  0  0  0
135138  2  0  0  0  0
138139  1  0  0  0  0
139140  1  0  0  0  0
138141  1  0  0  0  0
132142  2  0  0  0  0
142143  1  0  0  0  0
131144  1  0  0  0  0
144145  2  0  0  0  0
145146  1  0  0  0  0
 27  1  1  0  0  0  0
 43 31  1  0  0  0  0
 70 44  1  0  0  0  0
100 74  1  0  0  0  0
116104  1  0  0  0  0
143117  1  0  0  0  0
 26  3  1  0  0  0  0
 41 32  1  0  0  0  0
 69 46  1  0  0  0  0
 99 76  1  0  0  0  0
114105  1  0  0  0  0
142119  1  0  0  0  0
 12  5  2  0  0  0  0
 30 14  1  0  0  0  0
 55 48  2  0  0  0  0
 73 57  1  0  0  0  0
 85 78  2  0  0  0  0
103 87  1  0  0  0  0
128121  2  0  0  0  0
146130  1  0  0  0  0
 23 17  2  0  0  0  0
 66 60  2  0  0  0  0
 96 90  2  0  0  0  0
139133  2  0  0  0  0
  1147  1  0  0  0  0
  2148  1  0  0  0  0
  8149  1  0  0  0  0
  8150  1  0  0  0  0
  9151  1  0  0  0  0
  9152  1  0  0  0  0
  9153  1  0  0  0  0
 20154  1  0  0  0  0
 20155  1  0  0  0  0
 21156  1  0  0  0  0
 21157  1  0  0  0  0
 21158  1  0  0  0  0
 28159  1  0  0  0  0
 35160  1  0  0  0  0
 35161  1  0  0  0  0
 36162  1  0  0  0  0
 36163  1  0  0  0  0
 36164  1  0  0  0  0
 38165  1  0  0  0  0
 38166  1  0  0  0  0
 39167  1  0  0  0  0
 39168  1  0  0  0  0
 39169  1  0  0  0  0
 45170  1  0  0  0  0
 51171  1  0  0  0  0
 51172  1  0  0  0  0
 52173  1  0  0  0  0
 52174  1  0  0  0  0
 52175  1  0  0  0  0
 63176  1  0  0  0  0
 63177  1  0  0  0  0
 64178  1  0  0  0  0
 64179  1  0  0  0  0
 64180  1  0  0  0  0
 71181  1  0  0  0  0
 75182  1  0  0  0  0
 81183  1  0  0  0  0
 81184  1  0  0  0  0
 82185  1  0  0  0  0
 82186  1  0  0  0  0
 82187  1  0  0  0  0
 93188  1  0  0  0  0
 93189  1  0  0  0  0
 94190  1  0  0  0  0
 94191  1  0  0  0  0
 94192  1  0  0  0  0
101193  1  0  0  0  0
108194  1  0  0  0  0
108195  1  0  0  0  0
109196  1  0  0  0  0
109197  1  0  0  0  0
109198  1  0  0  0  0
111199  1  0  0  0  0
111200  1  0  0  0  0
112201  1  0  0  0  0
112202  1  0  0  0  0
112203  1  0  0  0  0
118204  1  0  0  0  0
124205  1  0  0  0  0
124206  1  0  0  0  0
125207  1  0  0  0  0
125208  1  0  0  0  0
125209  1  0  0  0  0
136210  1  0  0  0  0
136211  1  0  0  0  0
137212  1  0  0  0  0
137213  1  0  0  0  0
137214  1  0  0  0  0
144215  1  0  0  0  0
145216  1  0  0  0  0
M  END
