
  xtb     03082201013D
 energy: -472.877544342452 gnorm: 0.000465586511 xtb: 6.4.1 (unknown)
275301  0     0  0            999 V2000
   -5.2329   -5.4182   13.3404 C   0  0  0  0  0  0  0  0  0  0  0  0
   -4.6817   -4.3272   12.7712 C   0  0  0  0  0  0  0  0  0  0  0  0
   -4.9222   -4.2512   11.3667 C   0  0  0  0  0  0  0  0  0  0  0  0
   -4.5223   -3.2456   10.4734 C   0  0  0  0  0  0  0  0  0  0  0  0
   -3.6713   -2.1229   10.8860 C   0  0  0  0  0  0  0  0  0  0  0  0
   -2.4733   -2.3400   11.5657 C   0  0  0  0  0  0  0  0  0  0  0  0
   -1.6445   -1.2851   11.8808 C   0  0  0  0  0  0  0  0  0  0  0  0
   -1.9803    0.0261   11.5458 C   0  0  0  0  0  0  0  0  0  0  0  0
   -0.8462    1.3024   11.9945 S   0  0  0  0  0  0  0  0  0  0  0  0
   -1.0110    2.5136   10.6204 C   0  0  0  0  0  0  0  0  0  0  0  0
    0.2876    3.2833   10.4831 C   0  0  0  0  0  0  0  0  0  0  0  0
   -3.2006    0.2319   10.9091 C   0  0  0  0  0  0  0  0  0  0  0  0
   -3.6233    1.4804   10.6094 F   0  0  0  0  0  0  0  0  0  0  0  0
   -4.0274   -0.8176   10.5649 C   0  0  0  0  0  0  0  0  0  0  0  0
   -4.9432   -3.3781    9.1580 C   0  0  0  0  0  0  0  0  0  0  0  0
   -5.7211   -4.4716    8.7094 C   0  0  0  0  0  0  0  0  0  0  0  0
   -6.1235   -5.4792    9.6008 C   0  0  0  0  0  0  0  0  0  0  0  0
   -6.9260   -6.6016    9.1009 C   0  0  0  0  0  0  0  0  0  0  0  0
   -6.5465   -7.9257    9.3104 C   0  0  0  0  0  0  0  0  0  0  0  0
   -7.2290   -8.9554    8.6968 C   0  0  0  0  0  0  0  0  0  0  0  0
   -8.3204   -8.7088    7.8658 C   0  0  0  0  0  0  0  0  0  0  0  0
   -9.0878  -10.0722    7.0488 S   0  0  0  0  0  0  0  0  0  0  0  0
   -9.4774   -9.3704    5.3908 C   0  0  0  0  0  0  0  0  0  0  0  0
   -9.4524  -10.4778    4.3576 C   0  0  0  0  0  0  0  0  0  0  0  0
   -8.7449   -7.3884    7.7424 C   0  0  0  0  0  0  0  0  0  0  0  0
   -8.0592   -6.3479    8.3317 C   0  0  0  0  0  0  0  0  0  0  0  0
   -9.8498   -7.0817    7.0261 F   0  0  0  0  0  0  0  0  0  0  0  0
   -5.7015   -5.3451   10.9145 C   0  0  0  0  0  0  0  0  0  0  0  0
   -6.0837   -6.4312   12.2245 S   0  0  0  0  0  0  0  0  0  0  0  0
   -5.9502   -4.4157    7.3132 C   0  0  0  0  0  0  0  0  0  0  0  0
   -5.3971   -3.3300    6.7062 C   0  0  0  0  0  0  0  0  0  0  0  0
   -4.5431   -2.3014    7.8391 S   0  0  0  0  0  0  0  0  0  0  0  0
   -5.4804   -3.0305    5.3146 C   0  0  0  0  0  0  0  0  0  0  0  0
   -4.8805   -2.0421    4.5955 C   0  0  0  0  0  0  0  0  0  0  0  0
   -5.1976   -2.0808    3.2123 C   0  0  0  0  0  0  0  0  0  0  0  0
   -4.7606   -1.2291    2.1897 C   0  0  0  0  0  0  0  0  0  0  0  0
   -3.8061   -0.1278    2.3881 C   0  0  0  0  0  0  0  0  0  0  0  0
   -2.6508   -0.0810    1.6067 C   0  0  0  0  0  0  0  0  0  0  0  0
   -1.7655    0.9683    1.7169 C   0  0  0  0  0  0  0  0  0  0  0  0
   -2.0004    2.0218    2.5981 C   0  0  0  0  0  0  0  0  0  0  0  0
   -0.8616    3.3802    2.5474 S   0  0  0  0  0  0  0  0  0  0  0  0
   -0.6226    3.8413    4.2985 C   0  0  0  0  0  0  0  0  0  0  0  0
   -0.0480    2.6957    5.1061 C   0  0  0  0  0  0  0  0  0  0  0  0
   -3.1491    1.9562    3.3806 C   0  0  0  0  0  0  0  0  0  0  0  0
   -3.4497    2.9462    4.2496 F   0  0  0  0  0  0  0  0  0  0  0  0
   -4.0335    0.8970    3.2980 C   0  0  0  0  0  0  0  0  0  0  0  0
   -5.2304   -1.5036    0.9141 C   0  0  0  0  0  0  0  0  0  0  0  0
   -6.0616   -2.6017    0.5825 C   0  0  0  0  0  0  0  0  0  0  0  0
   -6.4922   -3.4597    1.6064 C   0  0  0  0  0  0  0  0  0  0  0  0
   -7.3835   -4.6037    1.3745 C   0  0  0  0  0  0  0  0  0  0  0  0
   -8.5866   -4.4563    0.6911 C   0  0  0  0  0  0  0  0  0  0  0  0
   -9.4696   -5.5121    0.5635 C   0  0  0  0  0  0  0  0  0  0  0  0
   -9.1822   -6.7534    1.1197 C   0  0  0  0  0  0  0  0  0  0  0  0
  -10.2222   -8.1743    1.0498 S   0  0  0  0  0  0  0  0  0  0  0  0
  -11.8710   -7.4991    0.6537 C   0  0  0  0  0  0  0  0  0  0  0  0
  -12.4441   -6.6819    1.7955 C   0  0  0  0  0  0  0  0  0  0  0  0
   -7.9554   -6.8963    1.7694 C   0  0  0  0  0  0  0  0  0  0  0  0
   -7.0662   -5.8552    1.9006 C   0  0  0  0  0  0  0  0  0  0  0  0
   -7.6319   -8.0928    2.3008 F   0  0  0  0  0  0  0  0  0  0  0  0
   -6.0522   -3.1658    2.8904 C   0  0  0  0  0  0  0  0  0  0  0  0
   -6.4771   -4.0721    4.3155 S   0  0  0  0  0  0  0  0  0  0  0  0
   -6.2770   -2.6983   -0.8227 C   0  0  0  0  0  0  0  0  0  0  0  0
   -5.6940   -1.6898   -1.5246 C   0  0  0  0  0  0  0  0  0  0  0  0
   -4.8575   -0.5485   -0.4853 S   0  0  0  0  0  0  0  0  0  0  0  0
   -5.4452   -1.4762   -2.9226 C   0  0  0  0  0  0  0  0  0  0  0  0
   -5.0821   -2.3800   -3.8751 C   0  0  0  0  0  0  0  0  0  0  0  0
   -4.4031   -1.7899   -4.9792 C   0  0  0  0  0  0  0  0  0  0  0  0
   -3.6252   -2.4543   -5.9474 C   0  0  0  0  0  0  0  0  0  0  0  0
   -3.7548   -3.9034   -6.1367 C   0  0  0  0  0  0  0  0  0  0  0  0
   -2.6530   -4.7558   -6.1736 C   0  0  0  0  0  0  0  0  0  0  0  0
   -2.8188   -6.1072   -6.3890 C   0  0  0  0  0  0  0  0  0  0  0  0
   -4.0821   -6.6661   -6.5693 C   0  0  0  0  0  0  0  0  0  0  0  0
   -4.1724   -8.4169   -6.8078 S   0  0  0  0  0  0  0  0  0  0  0  0
   -5.4483   -8.6164   -8.1062 C   0  0  0  0  0  0  0  0  0  0  0  0
   -5.0944   -7.8580   -9.3695 C   0  0  0  0  0  0  0  0  0  0  0  0
   -5.1763   -5.8097   -6.4918 C   0  0  0  0  0  0  0  0  0  0  0  0
   -6.4376   -6.2822   -6.6114 F   0  0  0  0  0  0  0  0  0  0  0  0
   -5.0250   -4.4534   -6.2907 C   0  0  0  0  0  0  0  0  0  0  0  0
   -2.7021   -1.6784   -6.6368 C   0  0  0  0  0  0  0  0  0  0  0  0
   -2.6262   -0.2695   -6.4959 C   0  0  0  0  0  0  0  0  0  0  0  0
   -3.4663    0.4061   -5.5991 C   0  0  0  0  0  0  0  0  0  0  0  0
   -3.2915    1.8322   -5.2980 C   0  0  0  0  0  0  0  0  0  0  0  0
   -2.0336    2.3195   -4.9491 C   0  0  0  0  0  0  0  0  0  0  0  0
   -1.8480    3.6474   -4.6259 C   0  0  0  0  0  0  0  0  0  0  0  0
   -2.9147    4.5392   -4.6331 C   0  0  0  0  0  0  0  0  0  0  0  0
   -2.7875    6.2443   -4.2073 S   0  0  0  0  0  0  0  0  0  0  0  0
   -1.0164    6.6184   -4.4598 C   0  0  0  0  0  0  0  0  0  0  0  0
   -0.6124    6.5257   -5.9178 C   0  0  0  0  0  0  0  0  0  0  0  0
   -4.1746    4.0312   -4.9529 C   0  0  0  0  0  0  0  0  0  0  0  0
   -4.3745    2.7067   -5.2787 C   0  0  0  0  0  0  0  0  0  0  0  0
   -5.2379    4.8593   -4.9487 F   0  0  0  0  0  0  0  0  0  0  0  0
   -4.3129   -0.3836   -4.8423 C   0  0  0  0  0  0  0  0  0  0  0  0
   -5.1452    0.1787   -3.4216 S   0  0  0  0  0  0  0  0  0  0  0  0
   -1.5135    0.2804   -7.1721 C   0  0  0  0  0  0  0  0  0  0  0  0
   -0.6848   -0.6592   -7.7138 C   0  0  0  0  0  0  0  0  0  0  0  0
   -1.3829   -2.2675   -7.6236 S   0  0  0  0  0  0  0  0  0  0  0  0
    0.7102   -0.4606   -7.9563 C   0  0  0  0  0  0  0  0  0  0  0  0
    1.4093    0.6390   -7.5423 C   0  0  0  0  0  0  0  0  0  0  0  0
    2.8044    0.4284   -7.4660 C   0  0  0  0  0  0  0  0  0  0  0  0
    3.7604    1.2664   -6.8781 C   0  0  0  0  0  0  0  0  0  0  0  0
    3.4532    2.5932   -6.3192 C   0  0  0  0  0  0  0  0  0  0  0  0
    4.1464    3.7139   -6.7708 C   0  0  0  0  0  0  0  0  0  0  0  0
    3.9378    4.9516   -6.1968 C   0  0  0  0  0  0  0  0  0  0  0  0
    3.0384    5.1057   -5.1493 C   0  0  0  0  0  0  0  0  0  0  0  0
    2.7960    6.7165   -4.4360 S   0  0  0  0  0  0  0  0  0  0  0  0
    3.1678    6.3874   -2.6741 C   0  0  0  0  0  0  0  0  0  0  0  0
    4.6097    5.9668   -2.4791 C   0  0  0  0  0  0  0  0  0  0  0  0
    2.3356    3.9842   -4.7262 C   0  0  0  0  0  0  0  0  0  0  0  0
    1.4258    4.1028   -3.7350 F   0  0  0  0  0  0  0  0  0  0  0  0
    2.5317    2.7385   -5.2868 C   0  0  0  0  0  0  0  0  0  0  0  0
    5.0338    0.7448   -6.7364 C   0  0  0  0  0  0  0  0  0  0  0  0
    5.4080   -0.5537   -7.1598 C   0  0  0  0  0  0  0  0  0  0  0  0
    4.4589   -1.3748   -7.7933 C   0  0  0  0  0  0  0  0  0  0  0  0
    4.7639   -2.7446   -8.2245 C   0  0  0  0  0  0  0  0  0  0  0  0
    5.3437   -3.6705   -7.3592 C   0  0  0  0  0  0  0  0  0  0  0  0
    5.5733   -4.9656   -7.7714 C   0  0  0  0  0  0  0  0  0  0  0  0
    5.2500   -5.3861   -9.0600 C   0  0  0  0  0  0  0  0  0  0  0  0
    5.6232   -7.0614   -9.4874 S   0  0  0  0  0  0  0  0  0  0  0  0
    4.1768   -7.5951  -10.4759 C   0  0  0  0  0  0  0  0  0  0  0  0
    2.8778   -7.4423   -9.7107 C   0  0  0  0  0  0  0  0  0  0  0  0
    4.6987   -4.4427   -9.9217 C   0  0  0  0  0  0  0  0  0  0  0  0
    4.4375   -3.1506   -9.5142 C   0  0  0  0  0  0  0  0  0  0  0  0
    4.4013   -4.7621  -11.2000 F   0  0  0  0  0  0  0  0  0  0  0  0
    3.1751   -0.8639   -7.9160 C   0  0  0  0  0  0  0  0  0  0  0  0
    1.7721   -1.7721   -8.4276 S   0  0  0  0  0  0  0  0  0  0  0  0
    6.7320   -0.8671   -6.7591 C   0  0  0  0  0  0  0  0  0  0  0  0
    7.3234    0.1009   -5.9992 C   0  0  0  0  0  0  0  0  0  0  0  0
    6.3100    1.5242   -5.8471 S   0  0  0  0  0  0  0  0  0  0  0  0
    8.5683    0.0021   -5.3056 C   0  0  0  0  0  0  0  0  0  0  0  0
    9.6472   -1.3135   -5.6907 S   0  0  0  0  0  0  0  0  0  0  0  0
   10.7232   -0.8406   -4.4425 C   0  0  0  0  0  0  0  0  0  0  0  0
   10.2859    0.2539   -3.7615 C   0  0  0  0  0  0  0  0  0  0  0  0
    9.0536    0.7516   -4.2556 C   0  0  0  0  0  0  0  0  0  0  0  0
    8.3986    1.9638   -3.6757 C   0  0  0  0  0  0  0  0  0  0  0  0
    8.9933    2.3562   -2.3203 C   0  0  0  0  0  0  0  0  0  0  0  0
   10.5286    2.3019   -2.3681 C   0  0  0  0  0  0  0  0  0  0  0  0
   10.9875    2.8431   -1.1455 O   0  0  0  0  0  0  0  0  0  0  0  0
   12.3614    3.1312   -1.0919 C   0  0  0  0  0  0  0  0  0  0  0  0
   10.9918    0.8595   -2.5911 C   0  0  0  0  0  0  0  0  0  0  0  0
    8.5614    3.7090   -1.9674 N   0  0  0  0  0  0  0  0  0  0  0  0
    7.7751    3.8917   -0.8495 C   0  0  0  0  0  0  0  0  0  0  0  0
    6.4606    3.5998   -0.6894 C   0  0  0  0  0  0  0  0  0  0  0  0
    5.9444    3.9565    0.5923 C   0  0  0  0  0  0  0  0  0  0  0  0
    4.6219    3.9021    1.0574 C   0  0  0  0  0  0  0  0  0  0  0  0
    3.4677    3.4868    0.2469 C   0  0  0  0  0  0  0  0  0  0  0  0
    2.3419    4.3085    0.2128 C   0  0  0  0  0  0  0  0  0  0  0  0
    1.1814    3.9218   -0.4249 C   0  0  0  0  0  0  0  0  0  0  0  0
    1.0976    2.6848   -1.0542 C   0  0  0  0  0  0  0  0  0  0  0  0
   -0.3644    2.0412   -1.7962 S   0  0  0  0  0  0  0  0  0  0  0  0
   -1.6649    3.1766   -1.1910 C   0  0  0  0  0  0  0  0  0  0  0  0
   -3.0214    2.5290   -1.3802 C   0  0  0  0  0  0  0  0  0  0  0  0
    2.2560    1.9059   -1.0809 C   0  0  0  0  0  0  0  0  0  0  0  0
    2.2349    0.7225   -1.7356 F   0  0  0  0  0  0  0  0  0  0  0  0
    3.4207    2.2799   -0.4456 C   0  0  0  0  0  0  0  0  0  0  0  0
    4.4050    4.3131    2.3703 C   0  0  0  0  0  0  0  0  0  0  0  0
    5.4204    4.8102    3.2151 C   0  0  0  0  0  0  0  0  0  0  0  0
    6.7251    4.9491    2.7216 C   0  0  0  0  0  0  0  0  0  0  0  0
    7.7945    5.5403    3.5345 C   0  0  0  0  0  0  0  0  0  0  0  0
    7.6150    6.7707    4.1650 C   0  0  0  0  0  0  0  0  0  0  0  0
    8.6332    7.3379    4.9004 C   0  0  0  0  0  0  0  0  0  0  0  0
    9.8616    6.6977    5.0518 C   0  0  0  0  0  0  0  0  0  0  0  0
   11.0787    7.5011    6.0543 S   0  0  0  0  0  0  0  0  0  0  0  0
   12.6484    7.2142    5.1563 C   0  0  0  0  0  0  0  0  0  0  0  0
   12.5922    7.7348    3.7343 C   0  0  0  0  0  0  0  0  0  0  0  0
   10.0151    5.4558    4.4439 C   0  0  0  0  0  0  0  0  0  0  0  0
    9.0138    4.8884    3.6827 C   0  0  0  0  0  0  0  0  0  0  0  0
   11.1616    4.7533    4.5842 F   0  0  0  0  0  0  0  0  0  0  0  0
    6.9509    4.5046    1.4281 C   0  0  0  0  0  0  0  0  0  0  0  0
    8.4808    4.6064    0.5995 S   0  0  0  0  0  0  0  0  0  0  0  0
    4.9364    5.0784    4.5309 C   0  0  0  0  0  0  0  0  0  0  0  0
    3.6243    4.8050    4.6704 C   0  0  0  0  0  0  0  0  0  0  0  0
    2.8833    4.2150    3.2204 S   0  0  0  0  0  0  0  0  0  0  0  0
   -5.2008   -5.7095   14.3721 H   0  0  0  0  0  0  0  0  0  0  0  0
   -4.1349   -3.5801   13.3173 H   0  0  0  0  0  0  0  0  0  0  0  0
   -2.1750   -3.3476   11.8118 H   0  0  0  0  0  0  0  0  0  0  0  0
   -0.7078   -1.4580   12.3875 H   0  0  0  0  0  0  0  0  0  0  0  0
   -1.2288    1.9453    9.7174 H   0  0  0  0  0  0  0  0  0  0  0  0
   -1.8420    3.1800   10.8470 H   0  0  0  0  0  0  0  0  0  0  0  0
    0.5145    3.8163   11.4035 H   0  0  0  0  0  0  0  0  0  0  0  0
    0.2008    4.0065    9.6746 H   0  0  0  0  0  0  0  0  0  0  0  0
    1.1118    2.6080   10.2637 H   0  0  0  0  0  0  0  0  0  0  0  0
   -4.9609   -0.5991   10.0705 H   0  0  0  0  0  0  0  0  0  0  0  0
   -5.6830   -8.1446    9.9193 H   0  0  0  0  0  0  0  0  0  0  0  0
   -6.9102   -9.9773    8.8302 H   0  0  0  0  0  0  0  0  0  0  0  0
  -10.4570   -8.8975    5.4422 H   0  0  0  0  0  0  0  0  0  0  0  0
   -8.7159   -8.6231    5.1742 H   0  0  0  0  0  0  0  0  0  0  0  0
   -9.6405  -10.0574    3.3721 H   0  0  0  0  0  0  0  0  0  0  0  0
  -10.2115  -11.2256    4.5753 H   0  0  0  0  0  0  0  0  0  0  0  0
   -8.4794  -10.9630    4.3445 H   0  0  0  0  0  0  0  0  0  0  0  0
   -8.4274   -5.3419    8.2003 H   0  0  0  0  0  0  0  0  0  0  0  0
   -6.4850   -5.1700    6.7649 H   0  0  0  0  0  0  0  0  0  0  0  0
   -4.2234   -1.3145    5.0375 H   0  0  0  0  0  0  0  0  0  0  0  0
   -2.4372   -0.8840    0.9181 H   0  0  0  0  0  0  0  0  0  0  0  0
   -0.8735    0.9930    1.1105 H   0  0  0  0  0  0  0  0  0  0  0  0
    0.0798    4.6727    4.2404 H   0  0  0  0  0  0  0  0  0  0  0  0
   -1.5673    4.1970    4.7035 H   0  0  0  0  0  0  0  0  0  0  0  0
    0.8852    2.3526    4.6638 H   0  0  0  0  0  0  0  0  0  0  0  0
    0.1459    3.0252    6.1251 H   0  0  0  0  0  0  0  0  0  0  0  0
   -0.7442    1.8594    5.1425 H   0  0  0  0  0  0  0  0  0  0  0  0
   -4.9181    0.9091    3.9162 H   0  0  0  0  0  0  0  0  0  0  0  0
   -8.8497   -3.4940    0.2782 H   0  0  0  0  0  0  0  0  0  0  0  0
  -10.3926   -5.3558    0.0287 H   0  0  0  0  0  0  0  0  0  0  0  0
  -12.4725   -8.3897    0.4721 H   0  0  0  0  0  0  0  0  0  0  0  0
  -11.8041   -6.9323   -0.2741 H   0  0  0  0  0  0  0  0  0  0  0  0
  -11.8175   -5.8192    2.0125 H   0  0  0  0  0  0  0  0  0  0  0  0
  -13.4410   -6.3316    1.5356 H   0  0  0  0  0  0  0  0  0  0  0  0
  -12.5120   -7.2895    2.6948 H   0  0  0  0  0  0  0  0  0  0  0  0
   -6.1294   -6.0289    2.4057 H   0  0  0  0  0  0  0  0  0  0  0  0
   -6.8293   -3.4986   -1.2815 H   0  0  0  0  0  0  0  0  0  0  0  0
   -5.1692   -3.4429   -3.7364 H   0  0  0  0  0  0  0  0  0  0  0  0
   -1.6614   -4.3616   -6.0192 H   0  0  0  0  0  0  0  0  0  0  0  0
   -1.9624   -6.7623   -6.4220 H   0  0  0  0  0  0  0  0  0  0  0  0
   -5.4573   -9.6920   -8.2824 H   0  0  0  0  0  0  0  0  0  0  0  0
   -6.4136   -8.3151   -7.7054 H   0  0  0  0  0  0  0  0  0  0  0  0
   -5.8331   -8.0666  -10.1409 H   0  0  0  0  0  0  0  0  0  0  0  0
   -4.1138   -8.1579   -9.7332 H   0  0  0  0  0  0  0  0  0  0  0  0
   -5.0813   -6.7848   -9.1877 H   0  0  0  0  0  0  0  0  0  0  0  0
   -5.9056   -3.8299   -6.2620 H   0  0  0  0  0  0  0  0  0  0  0  0
   -1.1972    1.6410   -4.8814 H   0  0  0  0  0  0  0  0  0  0  0  0
   -0.8646    3.9775   -4.3417 H   0  0  0  0  0  0  0  0  0  0  0  0
   -0.4192    5.9683   -3.8231 H   0  0  0  0  0  0  0  0  0  0  0  0
   -0.9185    7.6409   -4.0962 H   0  0  0  0  0  0  0  0  0  0  0  0
   -0.7335    5.5112   -6.2933 H   0  0  0  0  0  0  0  0  0  0  0  0
    0.4313    6.8146   -6.0253 H   0  0  0  0  0  0  0  0  0  0  0  0
   -1.2239    7.1919   -6.5217 H   0  0  0  0  0  0  0  0  0  0  0  0
   -5.3683    2.3694   -5.5280 H   0  0  0  0  0  0  0  0  0  0  0  0
   -1.3018    1.3326   -7.1866 H   0  0  0  0  0  0  0  0  0  0  0  0
    0.9439    1.5512   -7.2186 H   0  0  0  0  0  0  0  0  0  0  0  0
    4.8559    3.6093   -7.5773 H   0  0  0  0  0  0  0  0  0  0  0  0
    4.4777    5.8176   -6.5460 H   0  0  0  0  0  0  0  0  0  0  0  0
    2.9616    7.3378   -2.1827 H   0  0  0  0  0  0  0  0  0  0  0  0
    2.4752    5.6358   -2.3002 H   0  0  0  0  0  0  0  0  0  0  0  0
    4.8145    5.0356   -3.0047 H   0  0  0  0  0  0  0  0  0  0  0  0
    4.8089    5.8146   -1.4205 H   0  0  0  0  0  0  0  0  0  0  0  0
    5.2867    6.7300   -2.8565 H   0  0  0  0  0  0  0  0  0  0  0  0
    1.9850    1.8926   -4.8984 H   0  0  0  0  0  0  0  0  0  0  0  0
    5.5764   -3.3828   -6.3456 H   0  0  0  0  0  0  0  0  0  0  0  0
    6.0060   -5.6854   -7.0942 H   0  0  0  0  0  0  0  0  0  0  0  0
    4.3913   -8.6438  -10.6820 H   0  0  0  0  0  0  0  0  0  0  0  0
    4.1655   -7.0449  -11.4140 H   0  0  0  0  0  0  0  0  0  0  0  0
    2.9265   -7.9773   -8.7645 H   0  0  0  0  0  0  0  0  0  0  0  0
    2.0573   -7.8471  -10.2997 H   0  0  0  0  0  0  0  0  0  0  0  0
    2.6674   -6.3943   -9.5048 H   0  0  0  0  0  0  0  0  0  0  0  0
    4.0050   -2.4609  -10.2224 H   0  0  0  0  0  0  0  0  0  0  0  0
    7.2202   -1.7969   -6.9895 H   0  0  0  0  0  0  0  0  0  0  0  0
   11.6191   -1.4056   -4.2782 H   0  0  0  0  0  0  0  0  0  0  0  0
    8.5121    2.8077   -4.3633 H   0  0  0  0  0  0  0  0  0  0  0  0
    7.3270    1.7977   -3.5511 H   0  0  0  0  0  0  0  0  0  0  0  0
    8.6500    1.6546   -1.5506 H   0  0  0  0  0  0  0  0  0  0  0  0
   10.8813    2.9305   -3.2058 H   0  0  0  0  0  0  0  0  0  0  0  0
   12.5162    3.6833   -0.1668 H   0  0  0  0  0  0  0  0  0  0  0  0
   12.6706    3.7498   -1.9436 H   0  0  0  0  0  0  0  0  0  0  0  0
   12.9717    2.2225   -1.0729 H   0  0  0  0  0  0  0  0  0  0  0  0
   12.0713    0.8234   -2.7510 H   0  0  0  0  0  0  0  0  0  0  0  0
   10.7694    0.2846   -1.6863 H   0  0  0  0  0  0  0  0  0  0  0  0
    9.3621    4.3297   -1.9407 H   0  0  0  0  0  0  0  0  0  0  0  0
    5.8608    3.1737   -1.4721 H   0  0  0  0  0  0  0  0  0  0  0  0
    2.3738    5.2751    0.6921 H   0  0  0  0  0  0  0  0  0  0  0  0
    0.3362    4.5888   -0.4177 H   0  0  0  0  0  0  0  0  0  0  0  0
   -1.5946    4.1048   -1.7578 H   0  0  0  0  0  0  0  0  0  0  0  0
   -1.4724    3.3616   -0.1346 H   0  0  0  0  0  0  0  0  0  0  0  0
   -3.1935    2.2827   -2.4249 H   0  0  0  0  0  0  0  0  0  0  0  0
   -3.8007    3.2135   -1.0540 H   0  0  0  0  0  0  0  0  0  0  0  0
   -3.0924    1.6175   -0.7923 H   0  0  0  0  0  0  0  0  0  0  0  0
    4.2653    1.6087   -0.4581 H   0  0  0  0  0  0  0  0  0  0  0  0
    6.6798    7.2971    4.0488 H   0  0  0  0  0  0  0  0  0  0  0  0
    8.4971    8.2978    5.3740 H   0  0  0  0  0  0  0  0  0  0  0  0
   13.3782    7.7658    5.7491 H   0  0  0  0  0  0  0  0  0  0  0  0
   12.8897    6.1543    5.1937 H   0  0  0  0  0  0  0  0  0  0  0  0
   11.8603    7.1832    3.1468 H   0  0  0  0  0  0  0  0  0  0  0  0
   12.3202    8.7883    3.7238 H   0  0  0  0  0  0  0  0  0  0  0  0
   13.5669    7.6201    3.2641 H   0  0  0  0  0  0  0  0  0  0  0  0
    9.1879    3.9222    3.2358 H   0  0  0  0  0  0  0  0  0  0  0  0
    5.5618    5.4383    5.3277 H   0  0  0  0  0  0  0  0  0  0  0  0
    3.0182    4.9111    5.5491 H   0  0  0  0  0  0  0  0  0  0  0  0
  1  2  2  0  0  0  0
  2  3  1  0  0  0  0
  3  4  2  0  0  0  0
  4  5  1  0  0  0  0
  5  6  2  0  0  0  0
  6  7  1  0  0  0  0
  7  8  2  0  0  0  0
  8  9  1  0  0  0  0
  9 10  1  0  0  0  0
 10 11  1  0  0  0  0
  8 12  1  0  0  0  0
 12 13  1  0  0  0  0
 12 14  2  0  0  0  0
  4 15  1  0  0  0  0
 15 16  2  0  0  0  0
 16 17  1  0  0  0  0
 17 18  1  0  0  0  0
 18 19  2  0  0  0  0
 19 20  1  0  0  0  0
 20 21  2  0  0  0  0
 21 22  1  0  0  0  0
 22 23  1  0  0  0  0
 23 24  1  0  0  0  0
 21 25  1  0  0  0  0
 25 26  2  0  0  0  0
 25 27  1  0  0  0  0
 17 28  2  0  0  0  0
 28 29  1  0  0  0  0
 16 30  1  0  0  0  0
 30 31  2  0  0  0  0
 31 32  1  0  0  0  0
 31 33  1  0  0  0  0
 33 34  2  0  0  0  0
 34 35  1  0  0  0  0
 35 36  2  0  0  0  0
 36 37  1  0  0  0  0
 37 38  2  0  0  0  0
 38 39  1  0  0  0  0
 39 40  2  0  0  0  0
 40 41  1  0  0  0  0
 41 42  1  0  0  0  0
 42 43  1  0  0  0  0
 40 44  1  0  0  0  0
 44 45  1  0  0  0  0
 44 46  2  0  0  0  0
 36 47  1  0  0  0  0
 47 48  2  0  0  0  0
 48 49  1  0  0  0  0
 49 50  1  0  0  0  0
 50 51  2  0  0  0  0
 51 52  1  0  0  0  0
 52 53  2  0  0  0  0
 53 54  1  0  0  0  0
 54 55  1  0  0  0  0
 55 56  1  0  0  0  0
 53 57  1  0  0  0  0
 57 58  2  0  0  0  0
 57 59  1  0  0  0  0
 49 60  2  0  0  0  0
 60 61  1  0  0  0  0
 48 62  1  0  0  0  0
 62 63  2  0  0  0  0
 63 64  1  0  0  0  0
 63 65  1  0  0  0  0
 65 66  2  0  0  0  0
 66 67  1  0  0  0  0
 67 68  2  0  0  0  0
 68 69  1  0  0  0  0
 69 70  2  0  0  0  0
 70 71  1  0  0  0  0
 71 72  2  0  0  0  0
 72 73  1  0  0  0  0
 73 74  1  0  0  0  0
 74 75  1  0  0  0  0
 72 76  1  0  0  0  0
 76 77  1  0  0  0  0
 76 78  2  0  0  0  0
 68 79  1  0  0  0  0
 79 80  2  0  0  0  0
 80 81  1  0  0  0  0
 81 82  1  0  0  0  0
 82 83  2  0  0  0  0
 83 84  1  0  0  0  0
 84 85  2  0  0  0  0
 85 86  1  0  0  0  0
 86 87  1  0  0  0  0
 87 88  1  0  0  0  0
 85 89  1  0  0  0  0
 89 90  2  0  0  0  0
 89 91  1  0  0  0  0
 81 92  2  0  0  0  0
 92 93  1  0  0  0  0
 80 94  1  0  0  0  0
 94 95  2  0  0  0  0
 95 96  1  0  0  0  0
 95 97  1  0  0  0  0
 97 98  2  0  0  0  0
 98 99  1  0  0  0  0
 99100  2  0  0  0  0
100101  1  0  0  0  0
101102  2  0  0  0  0
102103  1  0  0  0  0
103104  2  0  0  0  0
104105  1  0  0  0  0
105106  1  0  0  0  0
106107  1  0  0  0  0
104108  1  0  0  0  0
108109  1  0  0  0  0
108110  2  0  0  0  0
100111  1  0  0  0  0
111112  2  0  0  0  0
112113  1  0  0  0  0
113114  1  0  0  0  0
114115  2  0  0  0  0
115116  1  0  0  0  0
116117  2  0  0  0  0
117118  1  0  0  0  0
118119  1  0  0  0  0
119120  1  0  0  0  0
117121  1  0  0  0  0
121122  2  0  0  0  0
121123  1  0  0  0  0
113124  2  0  0  0  0
124125  1  0  0  0  0
112126  1  0  0  0  0
126127  2  0  0  0  0
127128  1  0  0  0  0
127129  1  0  0  0  0
129130  1  0  0  0  0
130131  1  0  0  0  0
131132  2  0  0  0  0
132133  1  0  0  0  0
133134  1  0  0  0  0
134135  1  0  0  0  0
135136  1  0  0  0  0
136137  1  0  0  0  0
137138  1  0  0  0  0
136139  1  0  0  0  0
135140  1  0  0  0  0
140141  1  0  0  0  0
141142  2  0  0  0  0
142143  1  0  0  0  0
143144  2  0  0  0  0
144145  1  0  0  0  0
145146  2  0  0  0  0
146147  1  0  0  0  0
147148  2  0  0  0  0
148149  1  0  0  0  0
149150  1  0  0  0  0
150151  1  0  0  0  0
148152  1  0  0  0  0
152153  1  0  0  0  0
152154  2  0  0  0  0
144155  1  0  0  0  0
155156  2  0  0  0  0
156157  1  0  0  0  0
157158  1  0  0  0  0
158159  2  0  0  0  0
159160  1  0  0  0  0
160161  2  0  0  0  0
161162  1  0  0  0  0
162163  1  0  0  0  0
163164  1  0  0  0  0
161165  1  0  0  0  0
165166  2  0  0  0  0
165167  1  0  0  0  0
157168  2  0  0  0  0
168169  1  0  0  0  0
156170  1  0  0  0  0
170171  2  0  0  0  0
171172  1  0  0  0  0
 29  1  1  0  0  0  0
 61 33  1  0  0  0  0
 93 65  1  0  0  0  0
125 97  1  0  0  0  0
133129  2  0  0  0  0
169141  1  0  0  0  0
 28  3  1  0  0  0  0
 60 35  1  0  0  0  0
 92 67  1  0  0  0  0
124 99  1  0  0  0  0
139132  1  0  0  0  0
168143  1  0  0  0  0
 14  5  1  0  0  0  0
 32 15  1  0  0  0  0
 46 37  1  0  0  0  0
 64 47  1  0  0  0  0
 78 69  1  0  0  0  0
 96 79  1  0  0  0  0
110101  1  0  0  0  0
128111  1  0  0  0  0
154145  1  0  0  0  0
172155  1  0  0  0  0
 26 18  1  0  0  0  0
 58 50  1  0  0  0  0
 90 82  1  0  0  0  0
122114  1  0  0  0  0
166158  1  0  0  0  0
  1173  1  0  0  0  0
  2174  1  0  0  0  0
  6175  1  0  0  0  0
  7176  1  0  0  0  0
 10177  1  0  0  0  0
 10178  1  0  0  0  0
 11179  1  0  0  0  0
 11180  1  0  0  0  0
 11181  1  0  0  0  0
 14182  1  0  0  0  0
 19183  1  0  0  0  0
 20184  1  0  0  0  0
 23185  1  0  0  0  0
 23186  1  0  0  0  0
 24187  1  0  0  0  0
 24188  1  0  0  0  0
 24189  1  0  0  0  0
 26190  1  0  0  0  0
 30191  1  0  0  0  0
 34192  1  0  0  0  0
 38193  1  0  0  0  0
 39194  1  0  0  0  0
 42195  1  0  0  0  0
 42196  1  0  0  0  0
 43197  1  0  0  0  0
 43198  1  0  0  0  0
 43199  1  0  0  0  0
 46200  1  0  0  0  0
 51201  1  0  0  0  0
 52202  1  0  0  0  0
 55203  1  0  0  0  0
 55204  1  0  0  0  0
 56205  1  0  0  0  0
 56206  1  0  0  0  0
 56207  1  0  0  0  0
 58208  1  0  0  0  0
 62209  1  0  0  0  0
 66210  1  0  0  0  0
 70211  1  0  0  0  0
 71212  1  0  0  0  0
 74213  1  0  0  0  0
 74214  1  0  0  0  0
 75215  1  0  0  0  0
 75216  1  0  0  0  0
 75217  1  0  0  0  0
 78218  1  0  0  0  0
 83219  1  0  0  0  0
 84220  1  0  0  0  0
 87221  1  0  0  0  0
 87222  1  0  0  0  0
 88223  1  0  0  0  0
 88224  1  0  0  0  0
 88225  1  0  0  0  0
 90226  1  0  0  0  0
 94227  1  0  0  0  0
 98228  1  0  0  0  0
102229  1  0  0  0  0
103230  1  0  0  0  0
106231  1  0  0  0  0
106232  1  0  0  0  0
107233  1  0  0  0  0
107234  1  0  0  0  0
107235  1  0  0  0  0
110236  1  0  0  0  0
115237  1  0  0  0  0
116238  1  0  0  0  0
119239  1  0  0  0  0
119240  1  0  0  0  0
120241  1  0  0  0  0
120242  1  0  0  0  0
120243  1  0  0  0  0
122244  1  0  0  0  0
126245  1  0  0  0  0
131246  1  0  0  0  0
134247  1  0  0  0  0
134248  1  0  0  0  0
135249  1  0  0  0  0
136250  1  0  0  0  0
138251  1  0  0  0  0
138252  1  0  0  0  0
138253  1  0  0  0  0
139254  1  0  0  0  0
139255  1  0  0  0  0
140256  1  0  0  0  0
142257  1  0  0  0  0
146258  1  0  0  0  0
147259  1  0  0  0  0
150260  1  0  0  0  0
150261  1  0  0  0  0
151262  1  0  0  0  0
151263  1  0  0  0  0
151264  1  0  0  0  0
154265  1  0  0  0  0
159266  1  0  0  0  0
160267  1  0  0  0  0
163268  1  0  0  0  0
163269  1  0  0  0  0
164270  1  0  0  0  0
164271  1  0  0  0  0
164272  1  0  0  0  0
166273  1  0  0  0  0
170274  1  0  0  0  0
171275  1  0  0  0  0
M  END
