275

C         -5.23290       -5.41820       13.34040
C         -4.68170       -4.32720       12.77120
C         -4.92220       -4.25120       11.36670
C         -4.52230       -3.24560       10.47340
C         -3.67130       -2.12290       10.88600
C         -2.47330       -2.34000       11.56570
C         -1.64450       -1.28510       11.88080
C         -1.98030        0.02610       11.54580
S         -0.84620        1.30240       11.99450
C         -1.01100        2.51360       10.62040
C          0.28760        3.28330       10.48310
C         -3.20060        0.23190       10.90910
F         -3.62330        1.48040       10.60940
C         -4.02740       -0.81760       10.56490
C         -4.94320       -3.37810        9.15800
C         -5.72110       -4.47160        8.70940
C         -6.12350       -5.47920        9.60080
C         -6.92600       -6.60160        9.10090
C         -6.54650       -7.92570        9.31040
C         -7.22900       -8.95540        8.69680
C         -8.32040       -8.70880        7.86580
S         -9.08780      -10.07220        7.04880
C         -9.47740       -9.37040        5.39080
C         -9.45240      -10.47780        4.35760
C         -8.74490       -7.38840        7.74240
C         -8.05920       -6.34790        8.33170
F         -9.84980       -7.08170        7.02610
C         -5.70150       -5.34510       10.91450
S         -6.08370       -6.43120       12.22450
C         -5.95020       -4.41570        7.31320
C         -5.39710       -3.33000        6.70620
S         -4.54310       -2.30140        7.83910
C         -5.48040       -3.03050        5.31460
C         -4.88050       -2.04210        4.59550
C         -5.19760       -2.08080        3.21230
C         -4.76060       -1.22910        2.18970
C         -3.80610       -0.12780        2.38810
C         -2.65080       -0.08100        1.60670
C         -1.76550        0.96830        1.71690
C         -2.00040        2.02180        2.59810
S         -0.86160        3.38020        2.54740
C         -0.62260        3.84130        4.29850
C         -0.04800        2.69570        5.10610
C         -3.14910        1.95620        3.38060
F         -3.44970        2.94620        4.24960
C         -4.03350        0.89700        3.29800
C         -5.23040       -1.50360        0.91410
C         -6.06160       -2.60170        0.58250
C         -6.49220       -3.45970        1.60640
C         -7.38350       -4.60370        1.37450
C         -8.58660       -4.45630        0.69110
C         -9.46960       -5.51210        0.56350
C         -9.18220       -6.75340        1.11970
S        -10.22220       -8.17430        1.04980
C        -11.87100       -7.49910        0.65370
C        -12.44410       -6.68190        1.79550
C         -7.95540       -6.89630        1.76940
C         -7.06620       -5.85520        1.90060
F         -7.63190       -8.09280        2.30080
C         -6.05220       -3.16580        2.89040
S         -6.47710       -4.07210        4.31550
C         -6.27700       -2.69830       -0.82270
C         -5.69400       -1.68980       -1.52460
S         -4.85750       -0.54850       -0.48530
C         -5.44520       -1.47620       -2.92260
C         -5.08210       -2.38000       -3.87510
C         -4.40310       -1.78990       -4.97920
C         -3.62520       -2.45430       -5.94740
C         -3.75480       -3.90340       -6.13670
C         -2.65300       -4.75580       -6.17360
C         -2.81880       -6.10720       -6.38900
C         -4.08210       -6.66610       -6.56930
S         -4.17240       -8.41690       -6.80780
C         -5.44830       -8.61640       -8.10620
C         -5.09440       -7.85800       -9.36950
C         -5.17630       -5.80970       -6.49180
F         -6.43760       -6.28220       -6.61140
C         -5.02500       -4.45340       -6.29070
C         -2.70210       -1.67840       -6.63680
C         -2.62620       -0.26950       -6.49590
C         -3.46630        0.40610       -5.59910
C         -3.29150        1.83220       -5.29800
C         -2.03360        2.31950       -4.94910
C         -1.84800        3.64740       -4.62590
C         -2.91470        4.53920       -4.63310
S         -2.78750        6.24430       -4.20730
C         -1.01640        6.61840       -4.45980
C         -0.61240        6.52570       -5.91780
C         -4.17460        4.03120       -4.95290
C         -4.37450        2.70670       -5.27870
F         -5.23790        4.85930       -4.94870
C         -4.31290       -0.38360       -4.84230
S         -5.14520        0.17870       -3.42160
C         -1.51350        0.28040       -7.17210
C         -0.68480       -0.65920       -7.71380
S         -1.38290       -2.26750       -7.62360
C          0.71020       -0.46060       -7.95630
C          1.40930        0.63900       -7.54230
C          2.80440        0.42840       -7.46600
C          3.76040        1.26640       -6.87810
C          3.45320        2.59320       -6.31920
C          4.14640        3.71390       -6.77080
C          3.93780        4.95160       -6.19680
C          3.03840        5.10570       -5.14930
S          2.79600        6.71650       -4.43600
C          3.16780        6.38740       -2.67410
C          4.60970        5.96680       -2.47910
C          2.33560        3.98420       -4.72620
F          1.42580        4.10280       -3.73500
C          2.53170        2.73850       -5.28680
C          5.03380        0.74480       -6.73640
C          5.40800       -0.55370       -7.15980
C          4.45890       -1.37480       -7.79330
C          4.76390       -2.74460       -8.22450
C          5.34370       -3.67050       -7.35920
C          5.57330       -4.96560       -7.77140
C          5.25000       -5.38610       -9.06000
S          5.62320       -7.06140       -9.48740
C          4.17680       -7.59510      -10.47590
C          2.87780       -7.44230       -9.71070
C          4.69870       -4.44270       -9.92170
C          4.43750       -3.15060       -9.51420
F          4.40130       -4.76210      -11.20000
C          3.17510       -0.86390       -7.91600
S          1.77210       -1.77210       -8.42760
C          6.73200       -0.86710       -6.75910
C          7.32340        0.10090       -5.99920
S          6.31000        1.52420       -5.84710
C          8.56830        0.00210       -5.30560
S          9.64720       -1.31350       -5.69070
C         10.72320       -0.84060       -4.44250
C         10.28590        0.25390       -3.76150
C          9.05360        0.75160       -4.25560
C          8.39860        1.96380       -3.67570
C          8.99330        2.35620       -2.32030
C         10.52860        2.30190       -2.36810
O         10.98750        2.84310       -1.14550
C         12.36140        3.13120       -1.09190
C         10.99180        0.85950       -2.59110
N          8.56140        3.70900       -1.96740
C          7.77510        3.89170       -0.84950
C          6.46060        3.59980       -0.68940
C          5.94440        3.95650        0.59230
C          4.62190        3.90210        1.05740
C          3.46770        3.48680        0.24690
C          2.34190        4.30850        0.21280
C          1.18140        3.92180       -0.42490
C          1.09760        2.68480       -1.05420
S         -0.36440        2.04120       -1.79620
C         -1.66490        3.17660       -1.19100
C         -3.02140        2.52900       -1.38020
C          2.25600        1.90590       -1.08090
F          2.23490        0.72250       -1.73560
C          3.42070        2.27990       -0.44560
C          4.40500        4.31310        2.37030
C          5.42040        4.81020        3.21510
C          6.72510        4.94910        2.72160
C          7.79450        5.54030        3.53450
C          7.61500        6.77070        4.16500
C          8.63320        7.33790        4.90040
C          9.86160        6.69770        5.05180
S         11.07870        7.50110        6.05430
C         12.64840        7.21420        5.15630
C         12.59220        7.73480        3.73430
C         10.01510        5.45580        4.44390
C          9.01380        4.88840        3.68270
F         11.16160        4.75330        4.58420
C          6.95090        4.50460        1.42810
S          8.48080        4.60640        0.59950
C          4.93640        5.07840        4.53090
C          3.62430        4.80500        4.67040
S          2.88330        4.21500        3.22040
H         -5.20080       -5.70950       14.37210
H         -4.13490       -3.58010       13.31730
H         -2.17500       -3.34760       11.81180
H         -0.70780       -1.45800       12.38750
H         -1.22880        1.94530        9.71740
H         -1.84200        3.18000       10.84700
H          0.51450        3.81630       11.40350
H          0.20080        4.00650        9.67460
H          1.11180        2.60800       10.26370
H         -4.96090       -0.59910       10.07050
H         -5.68300       -8.14460        9.91930
H         -6.91020       -9.97730        8.83020
H        -10.45700       -8.89750        5.44220
H         -8.71590       -8.62310        5.17420
H         -9.64050      -10.05740        3.37210
H        -10.21150      -11.22560        4.57530
H         -8.47940      -10.96300        4.34450
H         -8.42740       -5.34190        8.20030
H         -6.48500       -5.17000        6.76490
H         -4.22340       -1.31450        5.03750
H         -2.43720       -0.88400        0.91810
H         -0.87350        0.99300        1.11050
H          0.07980        4.67270        4.24040
H         -1.56730        4.19700        4.70350
H          0.88520        2.35260        4.66380
H          0.14590        3.02520        6.12510
H         -0.74420        1.85940        5.14250
H         -4.91810        0.90910        3.91620
H         -8.84970       -3.49400        0.27820
H        -10.39260       -5.35580        0.02870
H        -12.47250       -8.38970        0.47210
H        -11.80410       -6.93230       -0.27410
H        -11.81750       -5.81920        2.01250
H        -13.44100       -6.33160        1.53560
H        -12.51200       -7.28950        2.69480
H         -6.12940       -6.02890        2.40570
H         -6.82930       -3.49860       -1.28150
H         -5.16920       -3.44290       -3.73640
H         -1.66140       -4.36160       -6.01920
H         -1.96240       -6.76230       -6.42200
H         -5.45730       -9.69200       -8.28240
H         -6.41360       -8.31510       -7.70540
H         -5.83310       -8.06660      -10.14090
H         -4.11380       -8.15790       -9.73320
H         -5.08130       -6.78480       -9.18770
H         -5.90560       -3.82990       -6.26200
H         -1.19720        1.64100       -4.88140
H         -0.86460        3.97750       -4.34170
H         -0.41920        5.96830       -3.82310
H         -0.91850        7.64090       -4.09620
H         -0.73350        5.51120       -6.29330
H          0.43130        6.81460       -6.02530
H         -1.22390        7.19190       -6.52170
H         -5.36830        2.36940       -5.52800
H         -1.30180        1.33260       -7.18660
H          0.94390        1.55120       -7.21860
H          4.85590        3.60930       -7.57730
H          4.47770        5.81760       -6.54600
H          2.96160        7.33780       -2.18270
H          2.47520        5.63580       -2.30020
H          4.81450        5.03560       -3.00470
H          4.80890        5.81460       -1.42050
H          5.28670        6.73000       -2.85650
H          1.98500        1.89260       -4.89840
H          5.57640       -3.38280       -6.34560
H          6.00600       -5.68540       -7.09420
H          4.39130       -8.64380      -10.68200
H          4.16550       -7.04490      -11.41400
H          2.92650       -7.97730       -8.76450
H          2.05730       -7.84710      -10.29970
H          2.66740       -6.39430       -9.50480
H          4.00500       -2.46090      -10.22240
H          7.22020       -1.79690       -6.98950
H         11.61910       -1.40560       -4.27820
H          8.51210        2.80770       -4.36330
H          7.32700        1.79770       -3.55110
H          8.65000        1.65460       -1.55060
H         10.88130        2.93050       -3.20580
H         12.51620        3.68330       -0.16680
H         12.67060        3.74980       -1.94360
H         12.97170        2.22250       -1.07290
H         12.07130        0.82340       -2.75100
H         10.76940        0.28460       -1.68630
H          9.36210        4.32970       -1.94070
H          5.86080        3.17370       -1.47210
H          2.37380        5.27510        0.69210
H          0.33620        4.58880       -0.41770
H         -1.59460        4.10480       -1.75780
H         -1.47240        3.36160       -0.13460
H         -3.19350        2.28270       -2.42490
H         -3.80070        3.21350       -1.05400
H         -3.09240        1.61750       -0.79230
H          4.26530        1.60870       -0.45810
H          6.67980        7.29710        4.04880
H          8.49710        8.29780        5.37400
H         13.37820        7.76580        5.74910
H         12.88970        6.15430        5.19370
H         11.86030        7.18320        3.14680
H         12.32020        8.78830        3.72380
H         13.56690        7.62010        3.26410
H          9.18790        3.92220        3.23580
H          5.56180        5.43830        5.32770
H          3.01820        4.91110        5.54910
