
  xtb     03032216083D
 energy: -364.607032303072 gnorm: 0.000249518712 xtb: 6.4.1 (unknown)
218238  0     0  0            999 V2000
    6.5422   12.5934    3.4866 C   0  0  0  0  0  0  0  0  0  0  0  0
    6.5175   11.2761    3.2032 C   0  0  0  0  0  0  0  0  0  0  0  0
    5.3873   10.8991    2.4181 C   0  0  0  0  0  0  0  0  0  0  0  0
    5.0490    9.6272    1.9393 C   0  0  0  0  0  0  0  0  0  0  0  0
    5.8698    8.4358    2.1994 C   0  0  0  0  0  0  0  0  0  0  0  0
    7.2200    8.3896    1.8619 C   0  0  0  0  0  0  0  0  0  0  0  0
    7.9595    7.2460    2.0853 C   0  0  0  0  0  0  0  0  0  0  0  0
    7.3838    6.1114    2.6507 C   0  0  0  0  0  0  0  0  0  0  0  0
    8.3960    4.6697    2.8465 S   0  0  0  0  0  0  0  0  0  0  0  0
    8.0252    4.1387    4.5608 C   0  0  0  0  0  0  0  0  0  0  0  0
    8.3290    5.2285    5.5688 C   0  0  0  0  0  0  0  0  0  0  0  0
    6.0316    6.1685    2.9699 C   0  0  0  0  0  0  0  0  0  0  0  0
    5.4028    5.0949    3.4998 F   0  0  0  0  0  0  0  0  0  0  0  0
    5.2818    7.3070    2.7615 C   0  0  0  0  0  0  0  0  0  0  0  0
    3.8823    9.5308    1.1974 C   0  0  0  0  0  0  0  0  0  0  0  0
    3.0405   10.6333    0.9124 C   0  0  0  0  0  0  0  0  0  0  0  0
    3.3732   11.9066    1.4035 C   0  0  0  0  0  0  0  0  0  0  0  0
    2.5303   13.0787    1.1377 C   0  0  0  0  0  0  0  0  0  0  0  0
    2.1527   13.9377    2.1682 C   0  0  0  0  0  0  0  0  0  0  0  0
    1.3669   15.0429    1.9134 C   0  0  0  0  0  0  0  0  0  0  0  0
    0.9252   15.3286    0.6267 C   0  0  0  0  0  0  0  0  0  0  0  0
   -0.0332   16.7981    0.3439 S   0  0  0  0  0  0  0  0  0  0  0  0
   -1.5586   16.0847   -0.3775 C   0  0  0  0  0  0  0  0  0  0  0  0
   -2.3714   15.3495    0.6704 C   0  0  0  0  0  0  0  0  0  0  0  0
    1.3166   14.4709   -0.3950 C   0  0  0  0  0  0  0  0  0  0  0  0
    2.0994   13.3604   -0.1560 C   0  0  0  0  0  0  0  0  0  0  0  0
    0.9311   14.7050   -1.6704 F   0  0  0  0  0  0  0  0  0  0  0  0
    4.5420   12.0027    2.1496 C   0  0  0  0  0  0  0  0  0  0  0  0
    5.1966   13.4678    2.8380 S   0  0  0  0  0  0  0  0  0  0  0  0
    1.9027   10.2462    0.1534 C   0  0  0  0  0  0  0  0  0  0  0  0
    1.8822    8.9214   -0.1711 C   0  0  0  0  0  0  0  0  0  0  0  0
    3.2799    8.0712    0.4679 S   0  0  0  0  0  0  0  0  0  0  0  0
    0.9245    8.1428   -0.8896 C   0  0  0  0  0  0  0  0  0  0  0  0
    1.0215    6.4165   -0.7273 S   0  0  0  0  0  0  0  0  0  0  0  0
   -0.3350    6.1866   -1.7920 C   0  0  0  0  0  0  0  0  0  0  0  0
   -0.8310    7.3969   -2.2311 C   0  0  0  0  0  0  0  0  0  0  0  0
   -0.1017    8.5019   -1.7401 C   0  0  0  0  0  0  0  0  0  0  0  0
   -0.4169    9.9123   -2.1345 C   0  0  0  0  0  0  0  0  0  0  0  0
   -1.1576   10.6431   -1.0134 C   0  0  0  0  0  0  0  0  0  0  0  0
   -1.5881   10.0821   -0.0398 O   0  0  0  0  0  0  0  0  0  0  0  0
   -1.3300   12.1272   -1.2281 C   0  0  0  0  0  0  0  0  0  0  0  0
   -1.2690    9.9217   -3.4128 C   0  0  0  0  0  0  0  0  0  0  0  0
   -2.4641    8.9918   -3.2396 C   0  0  0  0  0  0  0  0  0  0  0  0
   -1.9937    7.5420   -3.1604 C   0  0  0  0  0  0  0  0  0  0  0  0
   -0.7324    4.8406   -2.0461 C   0  0  0  0  0  0  0  0  0  0  0  0
   -0.0291    3.7436   -1.6381 C   0  0  0  0  0  0  0  0  0  0  0  0
   -0.6498    2.5086   -1.9349 C   0  0  0  0  0  0  0  0  0  0  0  0
   -0.2016    1.2190   -1.5964 C   0  0  0  0  0  0  0  0  0  0  0  0
    1.0571    1.0359   -0.8649 C   0  0  0  0  0  0  0  0  0  0  0  0
    1.3437    1.7781    0.2779 C   0  0  0  0  0  0  0  0  0  0  0  0
    2.5700    1.6845    0.9071 C   0  0  0  0  0  0  0  0  0  0  0  0
    3.5588    0.8389    0.4165 C   0  0  0  0  0  0  0  0  0  0  0  0
    5.1886    0.6782    1.0626 S   0  0  0  0  0  0  0  0  0  0  0  0
    5.3301    2.0397    2.2713 C   0  0  0  0  0  0  0  0  0  0  0  0
    4.8115    1.6552    3.6448 C   0  0  0  0  0  0  0  0  0  0  0  0
    3.2367    0.0574   -0.6956 C   0  0  0  0  0  0  0  0  0  0  0  0
    4.1608   -0.7947   -1.1841 F   0  0  0  0  0  0  0  0  0  0  0  0
    2.0205    0.1440   -1.3335 C   0  0  0  0  0  0  0  0  0  0  0  0
   -0.9980    0.1628   -2.0099 C   0  0  0  0  0  0  0  0  0  0  0  0
   -2.2026    0.3458   -2.7318 C   0  0  0  0  0  0  0  0  0  0  0  0
   -2.6627    1.6347   -3.0496 C   0  0  0  0  0  0  0  0  0  0  0  0
   -3.9449    1.8321   -3.7370 C   0  0  0  0  0  0  0  0  0  0  0  0
   -4.0466    2.6457   -4.8628 C   0  0  0  0  0  0  0  0  0  0  0  0
   -5.2555    2.8042   -5.5053 C   0  0  0  0  0  0  0  0  0  0  0  0
   -6.4118    2.1743   -5.0490 C   0  0  0  0  0  0  0  0  0  0  0  0
   -7.9124    2.5327   -5.9134 S   0  0  0  0  0  0  0  0  0  0  0  0
   -8.8294    0.9489   -5.9446 C   0  0  0  0  0  0  0  0  0  0  0  0
   -8.0713   -0.1335   -6.6856 C   0  0  0  0  0  0  0  0  0  0  0  0
   -6.3015    1.3886   -3.9068 C   0  0  0  0  0  0  0  0  0  0  0  0
   -5.0951    1.2081   -3.2633 C   0  0  0  0  0  0  0  0  0  0  0  0
   -7.3840    0.7824   -3.3677 F   0  0  0  0  0  0  0  0  0  0  0  0
   -1.8598    2.6905   -2.6488 C   0  0  0  0  0  0  0  0  0  0  0  0
   -2.2045    4.3869   -2.8867 S   0  0  0  0  0  0  0  0  0  0  0  0
   -2.8281   -0.8872   -3.0429 C   0  0  0  0  0  0  0  0  0  0  0  0
   -2.1878   -1.9771   -2.5348 C   0  0  0  0  0  0  0  0  0  0  0  0
   -0.7212   -1.5262   -1.6759 S   0  0  0  0  0  0  0  0  0  0  0  0
   -2.5718   -3.3558   -2.5692 C   0  0  0  0  0  0  0  0  0  0  0  0
   -1.9293   -4.4101   -1.3474 S   0  0  0  0  0  0  0  0  0  0  0  0
   -2.7966   -5.7648   -1.9924 C   0  0  0  0  0  0  0  0  0  0  0  0
   -3.5250   -5.4091   -3.1010 C   0  0  0  0  0  0  0  0  0  0  0  0
   -3.4172   -4.0360   -3.4253 C   0  0  0  0  0  0  0  0  0  0  0  0
   -4.0775   -3.4326   -4.6292 C   0  0  0  0  0  0  0  0  0  0  0  0
   -5.2140   -2.4641   -4.3116 C   0  0  0  0  0  0  0  0  0  0  0  0
   -5.5269   -1.5948   -5.0885 O   0  0  0  0  0  0  0  0  0  0  0  0
   -5.9551   -2.7211   -3.0306 C   0  0  0  0  0  0  0  0  0  0  0  0
   -4.7273   -4.4875   -5.5581 C   0  0  0  0  0  0  0  0  0  0  0  0
   -4.0616   -5.8516   -5.4458 C   0  0  0  0  0  0  0  0  0  0  0  0
   -4.2197   -6.3651   -4.0165 C   0  0  0  0  0  0  0  0  0  0  0  0
   -2.6604   -7.0373   -1.3340 C   0  0  0  0  0  0  0  0  0  0  0  0
   -1.0626   -7.5981   -0.9467 S   0  0  0  0  0  0  0  0  0  0  0  0
   -1.7007   -9.0030   -0.1491 C   0  0  0  0  0  0  0  0  0  0  0  0
   -3.0767   -9.0206   -0.1913 C   0  0  0  0  0  0  0  0  0  0  0  0
   -3.6224   -7.9000   -0.8608 C   0  0  0  0  0  0  0  0  0  0  0  0
   -5.1011   -7.6627   -0.9813 C   0  0  0  0  0  0  0  0  0  0  0  0
   -5.4905   -6.2524   -0.5449 C   0  0  0  0  0  0  0  0  0  0  0  0
   -4.7658   -5.5362    0.0938 O   0  0  0  0  0  0  0  0  0  0  0  0
   -6.8964   -5.8461   -0.9157 C   0  0  0  0  0  0  0  0  0  0  0  0
   -5.8947   -8.6599   -0.1175 C   0  0  0  0  0  0  0  0  0  0  0  0
   -5.3214  -10.0638   -0.2643 C   0  0  0  0  0  0  0  0  0  0  0  0
   -3.9343  -10.1118    0.3663 C   0  0  0  0  0  0  0  0  0  0  0  0
   -0.8007   -9.9431    0.4487 C   0  0  0  0  0  0  0  0  0  0  0  0
   -1.0117  -10.7745    1.5066 C   0  0  0  0  0  0  0  0  0  0  0  0
    0.1224  -11.5560    1.8541 C   0  0  0  0  0  0  0  0  0  0  0  0
    0.2289  -12.5120    2.8754 C   0  0  0  0  0  0  0  0  0  0  0  0
   -0.8685  -12.7542    3.8200 C   0  0  0  0  0  0  0  0  0  0  0  0
   -1.4537  -11.6983    4.5127 C   0  0  0  0  0  0  0  0  0  0  0  0
   -2.4703  -11.9133    5.4237 C   0  0  0  0  0  0  0  0  0  0  0  0
   -2.9414  -13.1978    5.6714 C   0  0  0  0  0  0  0  0  0  0  0  0
   -4.2282  -13.6142    6.7968 S   0  0  0  0  0  0  0  0  0  0  0  0
   -4.5888  -12.0265    7.6376 C   0  0  0  0  0  0  0  0  0  0  0  0
   -5.6023  -12.2798    8.7377 C   0  0  0  0  0  0  0  0  0  0  0  0
   -2.3486  -14.2469    4.9650 C   0  0  0  0  0  0  0  0  0  0  0  0
   -2.7912  -15.5034    5.1733 F   0  0  0  0  0  0  0  0  0  0  0  0
   -1.3307  -14.0464    4.0612 C   0  0  0  0  0  0  0  0  0  0  0  0
    1.4348  -13.1931    2.9666 C   0  0  0  0  0  0  0  0  0  0  0  0
    2.5290  -12.9508    2.1024 C   0  0  0  0  0  0  0  0  0  0  0  0
    2.4248  -11.9891    1.0868 C   0  0  0  0  0  0  0  0  0  0  0  0
    3.5274  -11.7294    0.1526 C   0  0  0  0  0  0  0  0  0  0  0  0
    3.9826  -10.4340   -0.0848 C   0  0  0  0  0  0  0  0  0  0  0  0
    5.0191  -10.2049   -0.9638 C   0  0  0  0  0  0  0  0  0  0  0  0
    5.6306  -11.2494   -1.6552 C   0  0  0  0  0  0  0  0  0  0  0  0
    6.9102  -10.8199   -2.7983 S   0  0  0  0  0  0  0  0  0  0  0  0
    8.1457  -12.1601   -2.6211 C   0  0  0  0  0  0  0  0  0  0  0  0
    8.6562  -12.2785   -1.1992 C   0  0  0  0  0  0  0  0  0  0  0  0
    5.1425  -12.5335   -1.4334 C   0  0  0  0  0  0  0  0  0  0  0  0
    4.1240  -12.7809   -0.5357 C   0  0  0  0  0  0  0  0  0  0  0  0
    5.6500  -13.5960   -2.0995 F   0  0  0  0  0  0  0  0  0  0  0  0
    1.2210  -11.3052    0.9969 C   0  0  0  0  0  0  0  0  0  0  0  0
    0.8290  -10.0881   -0.1878 S   0  0  0  0  0  0  0  0  0  0  0  0
    3.6633  -13.7397    2.4606 C   0  0  0  0  0  0  0  0  0  0  0  0
    3.4357  -14.5357    3.5242 C   0  0  0  0  0  0  0  0  0  0  0  0
    1.8368  -14.3911    4.1707 S   0  0  0  0  0  0  0  0  0  0  0  0
    7.2751   13.1334    4.0537 H   0  0  0  0  0  0  0  0  0  0  0  0
    7.2634   10.5769    3.5351 H   0  0  0  0  0  0  0  0  0  0  0  0
    7.6858    9.2500    1.4059 H   0  0  0  0  0  0  0  0  0  0  0  0
    9.0041    7.2098    1.8178 H   0  0  0  0  0  0  0  0  0  0  0  0
    8.6758    3.2763    4.7039 H   0  0  0  0  0  0  0  0  0  0  0  0
    6.9888    3.8136    4.6139 H   0  0  0  0  0  0  0  0  0  0  0  0
    7.6798    6.0892    5.4157 H   0  0  0  0  0  0  0  0  0  0  0  0
    9.3629    5.5550    5.4788 H   0  0  0  0  0  0  0  0  0  0  0  0
    8.1680    4.8512    6.5767 H   0  0  0  0  0  0  0  0  0  0  0  0
    4.2395    7.3015    3.0398 H   0  0  0  0  0  0  0  0  0  0  0  0
    2.4604   13.7262    3.1802 H   0  0  0  0  0  0  0  0  0  0  0  0
    1.0788   15.7052    2.7145 H   0  0  0  0  0  0  0  0  0  0  0  0
   -2.1020   16.9456   -0.7646 H   0  0  0  0  0  0  0  0  0  0  0  0
   -1.2789   15.4399   -1.2077 H   0  0  0  0  0  0  0  0  0  0  0  0
   -3.2742   14.9394    0.2220 H   0  0  0  0  0  0  0  0  0  0  0  0
   -2.6574   16.0280    1.4708 H   0  0  0  0  0  0  0  0  0  0  0  0
   -1.7964   14.5337    1.1059 H   0  0  0  0  0  0  0  0  0  0  0  0
    2.4043   12.7450   -0.9883 H   0  0  0  0  0  0  0  0  0  0  0  0
    1.1068   10.9260   -0.0815 H   0  0  0  0  0  0  0  0  0  0  0  0
    0.5175   10.4552   -2.3200 H   0  0  0  0  0  0  0  0  0  0  0  0
   -1.2521   12.6387   -0.2710 H   0  0  0  0  0  0  0  0  0  0  0  0
   -2.3345   12.3058   -1.6102 H   0  0  0  0  0  0  0  0  0  0  0  0
   -0.6089   12.5317   -1.9315 H   0  0  0  0  0  0  0  0  0  0  0  0
   -0.6570    9.5758   -4.2489 H   0  0  0  0  0  0  0  0  0  0  0  0
   -1.5987   10.9371   -3.6341 H   0  0  0  0  0  0  0  0  0  0  0  0
   -2.9959    9.2525   -2.3223 H   0  0  0  0  0  0  0  0  0  0  0  0
   -3.1559    9.1041   -4.0756 H   0  0  0  0  0  0  0  0  0  0  0  0
   -1.6983    7.1912   -4.1549 H   0  0  0  0  0  0  0  0  0  0  0  0
   -2.8144    6.9035   -2.8266 H   0  0  0  0  0  0  0  0  0  0  0  0
    0.9226    3.8247   -1.1448 H   0  0  0  0  0  0  0  0  0  0  0  0
    0.5904    2.4305    0.6930 H   0  0  0  0  0  0  0  0  0  0  0  0
    2.7495    2.2884    1.7812 H   0  0  0  0  0  0  0  0  0  0  0  0
    4.8194    2.9096    1.8626 H   0  0  0  0  0  0  0  0  0  0  0  0
    6.3991    2.2508    2.3061 H   0  0  0  0  0  0  0  0  0  0  0  0
    5.4132    0.8521    4.0640 H   0  0  0  0  0  0  0  0  0  0  0  0
    3.7795    1.3151    3.5950 H   0  0  0  0  0  0  0  0  0  0  0  0
    4.8585    2.5158    4.3090 H   0  0  0  0  0  0  0  0  0  0  0  0
    1.8454   -0.4587   -2.2104 H   0  0  0  0  0  0  0  0  0  0  0  0
   -3.1662    3.1340   -5.2513 H   0  0  0  0  0  0  0  0  0  0  0  0
   -5.3280    3.4255   -6.3845 H   0  0  0  0  0  0  0  0  0  0  0  0
   -9.0678    0.6578   -4.9244 H   0  0  0  0  0  0  0  0  0  0  0  0
   -9.7527    1.2112   -6.4628 H   0  0  0  0  0  0  0  0  0  0  0  0
   -7.8068    0.2043   -7.6855 H   0  0  0  0  0  0  0  0  0  0  0  0
   -8.6962   -1.0208   -6.7721 H   0  0  0  0  0  0  0  0  0  0  0  0
   -7.1599   -0.4055   -6.1584 H   0  0  0  0  0  0  0  0  0  0  0  0
   -5.0708    0.6065   -2.3677 H   0  0  0  0  0  0  0  0  0  0  0  0
   -3.7299   -0.9333   -3.6170 H   0  0  0  0  0  0  0  0  0  0  0  0
   -3.3222   -2.8778   -5.1979 H   0  0  0  0  0  0  0  0  0  0  0  0
   -6.8146   -2.0596   -2.9539 H   0  0  0  0  0  0  0  0  0  0  0  0
   -5.2884   -2.5568   -2.1861 H   0  0  0  0  0  0  0  0  0  0  0  0
   -6.2763   -3.7591   -2.9967 H   0  0  0  0  0  0  0  0  0  0  0  0
   -5.7847   -4.5990   -5.2997 H   0  0  0  0  0  0  0  0  0  0  0  0
   -4.6841   -4.1203   -6.5835 H   0  0  0  0  0  0  0  0  0  0  0  0
   -4.5281   -6.5438   -6.1486 H   0  0  0  0  0  0  0  0  0  0  0  0
   -3.0013   -5.7748   -5.6916 H   0  0  0  0  0  0  0  0  0  0  0  0
   -3.7871   -7.3614   -3.9065 H   0  0  0  0  0  0  0  0  0  0  0  0
   -5.2875   -6.4286   -3.7811 H   0  0  0  0  0  0  0  0  0  0  0  0
   -5.4040   -7.8002   -2.0247 H   0  0  0  0  0  0  0  0  0  0  0  0
   -7.0065   -4.7694   -0.8155 H   0  0  0  0  0  0  0  0  0  0  0  0
   -7.1544   -6.1621   -1.9227 H   0  0  0  0  0  0  0  0  0  0  0  0
   -7.5894   -6.3218   -0.2235 H   0  0  0  0  0  0  0  0  0  0  0  0
   -6.9426   -8.6479   -0.4204 H   0  0  0  0  0  0  0  0  0  0  0  0
   -5.8365   -8.3578    0.9310 H   0  0  0  0  0  0  0  0  0  0  0  0
   -5.2580  -10.3265   -1.3223 H   0  0  0  0  0  0  0  0  0  0  0  0
   -5.9750  -10.7866    0.2266 H   0  0  0  0  0  0  0  0  0  0  0  0
   -4.0319   -9.9810    1.4490 H   0  0  0  0  0  0  0  0  0  0  0  0
   -3.4612  -11.0808    0.1911 H   0  0  0  0  0  0  0  0  0  0  0  0
   -1.9364  -10.8262    2.0481 H   0  0  0  0  0  0  0  0  0  0  0  0
   -1.0912  -10.6936    4.3548 H   0  0  0  0  0  0  0  0  0  0  0  0
   -2.8918  -11.0680    5.9428 H   0  0  0  0  0  0  0  0  0  0  0  0
   -3.6536  -11.6471    8.0495 H   0  0  0  0  0  0  0  0  0  0  0  0
   -4.9851  -11.3310    6.8973 H   0  0  0  0  0  0  0  0  0  0  0  0
   -6.5223  -12.6844    8.3224 H   0  0  0  0  0  0  0  0  0  0  0  0
   -5.8303  -11.3487    9.2522 H   0  0  0  0  0  0  0  0  0  0  0  0
   -5.2091  -12.9913    9.4599 H   0  0  0  0  0  0  0  0  0  0  0  0
   -0.9154  -14.8948    3.5412 H   0  0  0  0  0  0  0  0  0  0  0  0
    3.5387   -9.6046    0.4434 H   0  0  0  0  0  0  0  0  0  0  0  0
    5.3778   -9.2019   -1.1339 H   0  0  0  0  0  0  0  0  0  0  0  0
    7.7144  -13.0921   -2.9793 H   0  0  0  0  0  0  0  0  0  0  0  0
    8.9418  -11.8539   -3.2997 H   0  0  0  0  0  0  0  0  0  0  0  0
    7.8566  -12.5769   -0.5235 H   0  0  0  0  0  0  0  0  0  0  0  0
    9.4424  -13.0295   -1.1533 H   0  0  0  0  0  0  0  0  0  0  0  0
    9.0594  -11.3274   -0.8578 H   0  0  0  0  0  0  0  0  0  0  0  0
    3.7768  -13.7952   -0.4108 H   0  0  0  0  0  0  0  0  0  0  0  0
    4.6059  -13.6871    1.9468 H   0  0  0  0  0  0  0  0  0  0  0  0
    4.1153  -15.2207    3.9925 H   0  0  0  0  0  0  0  0  0  0  0  0
  1  2  2  0  0  0  0
  2  3  1  0  0  0  0
  3  4  2  0  0  0  0
  4  5  1  0  0  0  0
  5  6  2  0  0  0  0
  6  7  1  0  0  0  0
  7  8  2  0  0  0  0
  8  9  1  0  0  0  0
  9 10  1  0  0  0  0
 10 11  1  0  0  0  0
  8 12  1  0  0  0  0
 12 13  1  0  0  0  0
 12 14  2  0  0  0  0
  4 15  1  0  0  0  0
 15 16  2  0  0  0  0
 16 17  1  0  0  0  0
 17 18  1  0  0  0  0
 18 19  2  0  0  0  0
 19 20  1  0  0  0  0
 20 21  2  0  0  0  0
 21 22  1  0  0  0  0
 22 23  1  0  0  0  0
 23 24  1  0  0  0  0
 21 25  1  0  0  0  0
 25 26  2  0  0  0  0
 25 27  1  0  0  0  0
 17 28  2  0  0  0  0
 28 29  1  0  0  0  0
 16 30  1  0  0  0  0
 30 31  2  0  0  0  0
 31 32  1  0  0  0  0
 31 33  1  0  0  0  0
 33 34  1  0  0  0  0
 34 35  1  0  0  0  0
 35 36  2  0  0  0  0
 36 37  1  0  0  0  0
 37 38  1  0  0  0  0
 38 39  1  0  0  0  0
 39 40  2  0  0  0  0
 39 41  1  0  0  0  0
 38 42  1  0  0  0  0
 42 43  1  0  0  0  0
 43 44  1  0  0  0  0
 35 45  1  0  0  0  0
 45 46  2  0  0  0  0
 46 47  1  0  0  0  0
 47 48  2  0  0  0  0
 48 49  1  0  0  0  0
 49 50  2  0  0  0  0
 50 51  1  0  0  0  0
 51 52  2  0  0  0  0
 52 53  1  0  0  0  0
 53 54  1  0  0  0  0
 54 55  1  0  0  0  0
 52 56  1  0  0  0  0
 56 57  1  0  0  0  0
 56 58  2  0  0  0  0
 48 59  1  0  0  0  0
 59 60  2  0  0  0  0
 60 61  1  0  0  0  0
 61 62  1  0  0  0  0
 62 63  2  0  0  0  0
 63 64  1  0  0  0  0
 64 65  2  0  0  0  0
 65 66  1  0  0  0  0
 66 67  1  0  0  0  0
 67 68  1  0  0  0  0
 65 69  1  0  0  0  0
 69 70  2  0  0  0  0
 69 71  1  0  0  0  0
 61 72  2  0  0  0  0
 72 73  1  0  0  0  0
 60 74  1  0  0  0  0
 74 75  2  0  0  0  0
 75 76  1  0  0  0  0
 75 77  1  0  0  0  0
 77 78  1  0  0  0  0
 78 79  1  0  0  0  0
 79 80  2  0  0  0  0
 80 81  1  0  0  0  0
 81 82  1  0  0  0  0
 82 83  1  0  0  0  0
 83 84  2  0  0  0  0
 83 85  1  0  0  0  0
 82 86  1  0  0  0  0
 86 87  1  0  0  0  0
 87 88  1  0  0  0  0
 79 89  1  0  0  0  0
 89 90  1  0  0  0  0
 90 91  1  0  0  0  0
 91 92  2  0  0  0  0
 92 93  1  0  0  0  0
 93 94  1  0  0  0  0
 94 95  1  0  0  0  0
 95 96  2  0  0  0  0
 95 97  1  0  0  0  0
 94 98  1  0  0  0  0
 98 99  1  0  0  0  0
 99100  1  0  0  0  0
 91101  1  0  0  0  0
101102  2  0  0  0  0
102103  1  0  0  0  0
103104  2  0  0  0  0
104105  1  0  0  0  0
105106  2  0  0  0  0
106107  1  0  0  0  0
107108  2  0  0  0  0
108109  1  0  0  0  0
109110  1  0  0  0  0
110111  1  0  0  0  0
108112  1  0  0  0  0
112113  1  0  0  0  0
112114  2  0  0  0  0
104115  1  0  0  0  0
115116  2  0  0  0  0
116117  1  0  0  0  0
117118  1  0  0  0  0
118119  2  0  0  0  0
119120  1  0  0  0  0
120121  2  0  0  0  0
121122  1  0  0  0  0
122123  1  0  0  0  0
123124  1  0  0  0  0
121125  1  0  0  0  0
125126  2  0  0  0  0
125127  1  0  0  0  0
117128  2  0  0  0  0
128129  1  0  0  0  0
116130  1  0  0  0  0
130131  2  0  0  0  0
131132  1  0  0  0  0
 29  1  1  0  0  0  0
 37 33  2  0  0  0  0
 73 45  1  0  0  0  0
 81 77  2  0  0  0  0
 93 89  2  0  0  0  0
129101  1  0  0  0  0
 28  3  1  0  0  0  0
 44 36  1  0  0  0  0
 72 47  1  0  0  0  0
 88 80  1  0  0  0  0
100 92  1  0  0  0  0
128103  1  0  0  0  0
 14  5  1  0  0  0  0
 32 15  1  0  0  0  0
 58 49  1  0  0  0  0
 76 59  1  0  0  0  0
114105  1  0  0  0  0
132115  1  0  0  0  0
 26 18  1  0  0  0  0
 70 62  1  0  0  0  0
126118  1  0  0  0  0
  1133  1  0  0  0  0
  2134  1  0  0  0  0
  6135  1  0  0  0  0
  7136  1  0  0  0  0
 10137  1  0  0  0  0
 10138  1  0  0  0  0
 11139  1  0  0  0  0
 11140  1  0  0  0  0
 11141  1  0  0  0  0
 14142  1  0  0  0  0
 19143  1  0  0  0  0
 20144  1  0  0  0  0
 23145  1  0  0  0  0
 23146  1  0  0  0  0
 24147  1  0  0  0  0
 24148  1  0  0  0  0
 24149  1  0  0  0  0
 26150  1  0  0  0  0
 30151  1  0  0  0  0
 38152  1  0  0  0  0
 41153  1  0  0  0  0
 41154  1  0  0  0  0
 41155  1  0  0  0  0
 42156  1  0  0  0  0
 42157  1  0  0  0  0
 43158  1  0  0  0  0
 43159  1  0  0  0  0
 44160  1  0  0  0  0
 44161  1  0  0  0  0
 46162  1  0  0  0  0
 50163  1  0  0  0  0
 51164  1  0  0  0  0
 54165  1  0  0  0  0
 54166  1  0  0  0  0
 55167  1  0  0  0  0
 55168  1  0  0  0  0
 55169  1  0  0  0  0
 58170  1  0  0  0  0
 63171  1  0  0  0  0
 64172  1  0  0  0  0
 67173  1  0  0  0  0
 67174  1  0  0  0  0
 68175  1  0  0  0  0
 68176  1  0  0  0  0
 68177  1  0  0  0  0
 70178  1  0  0  0  0
 74179  1  0  0  0  0
 82180  1  0  0  0  0
 85181  1  0  0  0  0
 85182  1  0  0  0  0
 85183  1  0  0  0  0
 86184  1  0  0  0  0
 86185  1  0  0  0  0
 87186  1  0  0  0  0
 87187  1  0  0  0  0
 88188  1  0  0  0  0
 88189  1  0  0  0  0
 94190  1  0  0  0  0
 97191  1  0  0  0  0
 97192  1  0  0  0  0
 97193  1  0  0  0  0
 98194  1  0  0  0  0
 98195  1  0  0  0  0
 99196  1  0  0  0  0
 99197  1  0  0  0  0
100198  1  0  0  0  0
100199  1  0  0  0  0
102200  1  0  0  0  0
106201  1  0  0  0  0
107202  1  0  0  0  0
110203  1  0  0  0  0
110204  1  0  0  0  0
111205  1  0  0  0  0
111206  1  0  0  0  0
111207  1  0  0  0  0
114208  1  0  0  0  0
119209  1  0  0  0  0
120210  1  0  0  0  0
123211  1  0  0  0  0
123212  1  0  0  0  0
124213  1  0  0  0  0
124214  1  0  0  0  0
124215  1  0  0  0  0
126216  1  0  0  0  0
130217  1  0  0  0  0
131218  1  0  0  0  0
M  END
