218

C          6.54220       12.59340        3.48660
C          6.51750       11.27610        3.20320
C          5.38730       10.89910        2.41810
C          5.04900        9.62720        1.93930
C          5.86980        8.43580        2.19940
C          7.22000        8.38960        1.86190
C          7.95950        7.24600        2.08530
C          7.38380        6.11140        2.65070
S          8.39600        4.66970        2.84650
C          8.02520        4.13870        4.56080
C          8.32900        5.22850        5.56880
C          6.03160        6.16850        2.96990
F          5.40280        5.09490        3.49980
C          5.28180        7.30700        2.76150
C          3.88230        9.53080        1.19740
C          3.04050       10.63330        0.91240
C          3.37320       11.90660        1.40350
C          2.53030       13.07870        1.13770
C          2.15270       13.93770        2.16820
C          1.36690       15.04290        1.91340
C          0.92520       15.32860        0.62670
S         -0.03320       16.79810        0.34390
C         -1.55860       16.08470       -0.37750
C         -2.37140       15.34950        0.67040
C          1.31660       14.47090       -0.39500
C          2.09940       13.36040       -0.15600
F          0.93110       14.70500       -1.67040
C          4.54200       12.00270        2.14960
S          5.19660       13.46780        2.83800
C          1.90270       10.24620        0.15340
C          1.88220        8.92140       -0.17110
S          3.27990        8.07120        0.46790
C          0.92450        8.14280       -0.88960
S          1.02150        6.41650       -0.72730
C         -0.33500        6.18660       -1.79200
C         -0.83100        7.39690       -2.23110
C         -0.10170        8.50190       -1.74010
C         -0.41690        9.91230       -2.13450
C         -1.15760       10.64310       -1.01340
O         -1.58810       10.08210       -0.03980
C         -1.33000       12.12720       -1.22810
C         -1.26900        9.92170       -3.41280
C         -2.46410        8.99180       -3.23960
C         -1.99370        7.54200       -3.16040
C         -0.73240        4.84060       -2.04610
C         -0.02910        3.74360       -1.63810
C         -0.64980        2.50860       -1.93490
C         -0.20160        1.21900       -1.59640
C          1.05710        1.03590       -0.86490
C          1.34370        1.77810        0.27790
C          2.57000        1.68450        0.90710
C          3.55880        0.83890        0.41650
S          5.18860        0.67820        1.06260
C          5.33010        2.03970        2.27130
C          4.81150        1.65520        3.64480
C          3.23670        0.05740       -0.69560
F          4.16080       -0.79470       -1.18410
C          2.02050        0.14400       -1.33350
C         -0.99800        0.16280       -2.00990
C         -2.20260        0.34580       -2.73180
C         -2.66270        1.63470       -3.04960
C         -3.94490        1.83210       -3.73700
C         -4.04660        2.64570       -4.86280
C         -5.25550        2.80420       -5.50530
C         -6.41180        2.17430       -5.04900
S         -7.91240        2.53270       -5.91340
C         -8.82940        0.94890       -5.94460
C         -8.07130       -0.13350       -6.68560
C         -6.30150        1.38860       -3.90680
C         -5.09510        1.20810       -3.26330
F         -7.38400        0.78240       -3.36770
C         -1.85980        2.69050       -2.64880
S         -2.20450        4.38690       -2.88670
C         -2.82810       -0.88720       -3.04290
C         -2.18780       -1.97710       -2.53480
S         -0.72120       -1.52620       -1.67590
C         -2.57180       -3.35580       -2.56920
S         -1.92930       -4.41010       -1.34740
C         -2.79660       -5.76480       -1.99240
C         -3.52500       -5.40910       -3.10100
C         -3.41720       -4.03600       -3.42530
C         -4.07750       -3.43260       -4.62920
C         -5.21400       -2.46410       -4.31160
O         -5.52690       -1.59480       -5.08850
C         -5.95510       -2.72110       -3.03060
C         -4.72730       -4.48750       -5.55810
C         -4.06160       -5.85160       -5.44580
C         -4.21970       -6.36510       -4.01650
C         -2.66040       -7.03730       -1.33400
S         -1.06260       -7.59810       -0.94670
C         -1.70070       -9.00300       -0.14910
C         -3.07670       -9.02060       -0.19130
C         -3.62240       -7.90000       -0.86080
C         -5.10110       -7.66270       -0.98130
C         -5.49050       -6.25240       -0.54490
O         -4.76580       -5.53620        0.09380
C         -6.89640       -5.84610       -0.91570
C         -5.89470       -8.65990       -0.11750
C         -5.32140      -10.06380       -0.26430
C         -3.93430      -10.11180        0.36630
C         -0.80070       -9.94310        0.44870
C         -1.01170      -10.77450        1.50660
C          0.12240      -11.55600        1.85410
C          0.22890      -12.51200        2.87540
C         -0.86850      -12.75420        3.82000
C         -1.45370      -11.69830        4.51270
C         -2.47030      -11.91330        5.42370
C         -2.94140      -13.19780        5.67140
S         -4.22820      -13.61420        6.79680
C         -4.58880      -12.02650        7.63760
C         -5.60230      -12.27980        8.73770
C         -2.34860      -14.24690        4.96500
F         -2.79120      -15.50340        5.17330
C         -1.33070      -14.04640        4.06120
C          1.43480      -13.19310        2.96660
C          2.52900      -12.95080        2.10240
C          2.42480      -11.98910        1.08680
C          3.52740      -11.72940        0.15260
C          3.98260      -10.43400       -0.08480
C          5.01910      -10.20490       -0.96380
C          5.63060      -11.24940       -1.65520
S          6.91020      -10.81990       -2.79830
C          8.14570      -12.16010       -2.62110
C          8.65620      -12.27850       -1.19920
C          5.14250      -12.53350       -1.43340
C          4.12400      -12.78090       -0.53570
F          5.65000      -13.59600       -2.09950
C          1.22100      -11.30520        0.99690
S          0.82900      -10.08810       -0.18780
C          3.66330      -13.73970        2.46060
C          3.43570      -14.53570        3.52420
S          1.83680      -14.39110        4.17070
H          7.27510       13.13340        4.05370
H          7.26340       10.57690        3.53510
H          7.68580        9.25000        1.40590
H          9.00410        7.20980        1.81780
H          8.67580        3.27630        4.70390
H          6.98880        3.81360        4.61390
H          7.67980        6.08920        5.41570
H          9.36290        5.55500        5.47880
H          8.16800        4.85120        6.57670
H          4.23950        7.30150        3.03980
H          2.46040       13.72620        3.18020
H          1.07880       15.70520        2.71450
H         -2.10200       16.94560       -0.76460
H         -1.27890       15.43990       -1.20770
H         -3.27420       14.93940        0.22200
H         -2.65740       16.02800        1.47080
H         -1.79640       14.53370        1.10590
H          2.40430       12.74500       -0.98830
H          1.10680       10.92600       -0.08150
H          0.51750       10.45520       -2.32000
H         -1.25210       12.63870       -0.27100
H         -2.33450       12.30580       -1.61020
H         -0.60890       12.53170       -1.93150
H         -0.65700        9.57580       -4.24890
H         -1.59870       10.93710       -3.63410
H         -2.99590        9.25250       -2.32230
H         -3.15590        9.10410       -4.07560
H         -1.69830        7.19120       -4.15490
H         -2.81440        6.90350       -2.82660
H          0.92260        3.82470       -1.14480
H          0.59040        2.43050        0.69300
H          2.74950        2.28840        1.78120
H          4.81940        2.90960        1.86260
H          6.39910        2.25080        2.30610
H          5.41320        0.85210        4.06400
H          3.77950        1.31510        3.59500
H          4.85850        2.51580        4.30900
H          1.84540       -0.45870       -2.21040
H         -3.16620        3.13400       -5.25130
H         -5.32800        3.42550       -6.38450
H         -9.06780        0.65780       -4.92440
H         -9.75270        1.21120       -6.46280
H         -7.80680        0.20430       -7.68550
H         -8.69620       -1.02080       -6.77210
H         -7.15990       -0.40550       -6.15840
H         -5.07080        0.60650       -2.36770
H         -3.72990       -0.93330       -3.61700
H         -3.32220       -2.87780       -5.19790
H         -6.81460       -2.05960       -2.95390
H         -5.28840       -2.55680       -2.18610
H         -6.27630       -3.75910       -2.99670
H         -5.78470       -4.59900       -5.29970
H         -4.68410       -4.12030       -6.58350
H         -4.52810       -6.54380       -6.14860
H         -3.00130       -5.77480       -5.69160
H         -3.78710       -7.36140       -3.90650
H         -5.28750       -6.42860       -3.78110
H         -5.40400       -7.80020       -2.02470
H         -7.00650       -4.76940       -0.81550
H         -7.15440       -6.16210       -1.92270
H         -7.58940       -6.32180       -0.22350
H         -6.94260       -8.64790       -0.42040
H         -5.83650       -8.35780        0.93100
H         -5.25800      -10.32650       -1.32230
H         -5.97500      -10.78660        0.22660
H         -4.03190       -9.98100        1.44900
H         -3.46120      -11.08080        0.19110
H         -1.93640      -10.82620        2.04810
H         -1.09120      -10.69360        4.35480
H         -2.89180      -11.06800        5.94280
H         -3.65360      -11.64710        8.04950
H         -4.98510      -11.33100        6.89730
H         -6.52230      -12.68440        8.32240
H         -5.83030      -11.34870        9.25220
H         -5.20910      -12.99130        9.45990
H         -0.91540      -14.89480        3.54120
H          3.53870       -9.60460        0.44340
H          5.37780       -9.20190       -1.13390
H          7.71440      -13.09210       -2.97930
H          8.94180      -11.85390       -3.29970
H          7.85660      -12.57690       -0.52350
H          9.44240      -13.02950       -1.15330
H          9.05940      -11.32740       -0.85780
H          3.77680      -13.79520       -0.41080
H          4.60590      -13.68710        1.94680
H          4.11530      -15.22070        3.99250
