
  xtb     03012222423D
 energy: -459.396206703531 gnorm: 0.000446828988 xtb: 6.4.1 (unknown)
226251  0     0  0            999 V2000
   18.9161   -3.5399    5.3153 C   0  0  0  0  0  0  0  0  0  0  0  0
   18.3327   -3.8793    4.1475 C   0  0  0  0  0  0  0  0  0  0  0  0
   16.9993   -3.3896    4.0333 C   0  0  0  0  0  0  0  0  0  0  0  0
   16.1229   -3.5010    2.9426 C   0  0  0  0  0  0  0  0  0  0  0  0
   16.4704   -4.2589    1.7508 C   0  0  0  0  0  0  0  0  0  0  0  0
   16.9635   -5.9236    1.8627 S   0  0  0  0  0  0  0  0  0  0  0  0
   17.0796   -6.0890    0.1438 C   0  0  0  0  0  0  0  0  0  0  0  0
   17.5331   -7.3616   -0.4817 C   0  0  0  0  0  0  0  0  0  0  0  0
   19.0611   -7.4443   -0.5100 C   0  0  0  0  0  0  0  0  0  0  0  0
   16.7662   -4.9112   -0.4654 C   0  0  0  0  0  0  0  0  0  0  0  0
   16.7700   -4.6823   -2.1661 Cl  0  0  0  0  0  0  0  0  0  0  0  0
   16.4162   -3.8733    0.4402 C   0  0  0  0  0  0  0  0  0  0  0  0
   16.0542   -2.2837   -0.0882 Cl  0  0  0  0  0  0  0  0  0  0  0  0
   14.8877   -2.8753    3.0607 C   0  0  0  0  0  0  0  0  0  0  0  0
   14.4929   -2.1597    4.2178 C   0  0  0  0  0  0  0  0  0  0  0  0
   15.3676   -2.0543    5.3115 C   0  0  0  0  0  0  0  0  0  0  0  0
   14.9811   -1.3298    6.5110 C   0  0  0  0  0  0  0  0  0  0  0  0
   14.4146    0.3125    6.4233 S   0  0  0  0  0  0  0  0  0  0  0  0
   14.1819    0.4087    8.1359 C   0  0  0  0  0  0  0  0  0  0  0  0
   13.6132    1.6338    8.7620 C   0  0  0  0  0  0  0  0  0  0  0  0
   12.1162    1.7535    8.4668 C   0  0  0  0  0  0  0  0  0  0  0  0
   14.5247   -0.7708    8.7254 C   0  0  0  0  0  0  0  0  0  0  0  0
   14.9842   -1.7564    7.8097 C   0  0  0  0  0  0  0  0  0  0  0  0
   15.4024   -3.3427    8.3040 Cl  0  0  0  0  0  0  0  0  0  0  0  0
   14.4205   -1.0669   10.4126 Cl  0  0  0  0  0  0  0  0  0  0  0  0
   16.6091   -2.6677    5.1871 C   0  0  0  0  0  0  0  0  0  0  0  0
   17.8953   -2.6141    6.3577 S   0  0  0  0  0  0  0  0  0  0  0  0
   13.1694   -1.6648    4.1060 C   0  0  0  0  0  0  0  0  0  0  0  0
   12.5739   -1.9715    2.9199 C   0  0  0  0  0  0  0  0  0  0  0  0
   13.6173   -2.9102    1.8736 S   0  0  0  0  0  0  0  0  0  0  0  0
   11.2678   -1.6146    2.4755 C   0  0  0  0  0  0  0  0  0  0  0  0
   10.7307   -1.8390    1.2437 C   0  0  0  0  0  0  0  0  0  0  0  0
    9.4020   -1.3690    1.1095 C   0  0  0  0  0  0  0  0  0  0  0  0
    8.5604   -1.4588   -0.0142 C   0  0  0  0  0  0  0  0  0  0  0  0
    9.0176   -2.0987   -1.2365 C   0  0  0  0  0  0  0  0  0  0  0  0
    9.7092   -3.6953   -1.2112 S   0  0  0  0  0  0  0  0  0  0  0  0
    9.9998   -3.6860   -2.9166 C   0  0  0  0  0  0  0  0  0  0  0  0
   10.7019   -4.8194   -3.5785 C   0  0  0  0  0  0  0  0  0  0  0  0
   12.2102   -4.7432   -3.3264 C   0  0  0  0  0  0  0  0  0  0  0  0
    9.5773   -2.5101   -3.4603 C   0  0  0  0  0  0  0  0  0  0  0  0
    9.7048   -2.1244   -5.1274 Cl  0  0  0  0  0  0  0  0  0  0  0  0
    9.0149   -1.6105   -2.5140 C   0  0  0  0  0  0  0  0  0  0  0  0
    8.4898   -0.0389   -2.9493 Cl  0  0  0  0  0  0  0  0  0  0  0  0
    7.2888   -0.9143    0.1084 C   0  0  0  0  0  0  0  0  0  0  0  0
    6.8372   -0.2753    1.2915 C   0  0  0  0  0  0  0  0  0  0  0  0
    7.6708   -0.2073    2.4219 C   0  0  0  0  0  0  0  0  0  0  0  0
    7.2046    0.3642    3.6743 C   0  0  0  0  0  0  0  0  0  0  0  0
    8.1297    1.5708    4.5180 S   0  0  0  0  0  0  0  0  0  0  0  0
    6.9772    1.6689    5.8048 C   0  0  0  0  0  0  0  0  0  0  0  0
    7.2088    2.5525    6.9802 C   0  0  0  0  0  0  0  0  0  0  0  0
    8.1403    1.8782    7.9903 C   0  0  0  0  0  0  0  0  0  0  0  0
    5.9480    0.8031    5.5849 C   0  0  0  0  0  0  0  0  0  0  0  0
    6.0686    0.0659    4.3763 C   0  0  0  0  0  0  0  0  0  0  0  0
    4.9280   -1.1353    3.9190 Cl  0  0  0  0  0  0  0  0  0  0  0  0
    4.6233    0.5987    6.6561 Cl  0  0  0  0  0  0  0  0  0  0  0  0
    8.9442   -0.7443    2.2951 C   0  0  0  0  0  0  0  0  0  0  0  0
   10.1555   -0.7876    3.5462 S   0  0  0  0  0  0  0  0  0  0  0  0
    5.5201    0.2199    1.1535 C   0  0  0  0  0  0  0  0  0  0  0  0
    4.9486   -0.0793   -0.0503 C   0  0  0  0  0  0  0  0  0  0  0  0
    6.0378   -0.9570   -1.0987 S   0  0  0  0  0  0  0  0  0  0  0  0
    3.6152    0.2231   -0.4602 C   0  0  0  0  0  0  0  0  0  0  0  0
    2.6831    0.9244    0.2492 C   0  0  0  0  0  0  0  0  0  0  0  0
    1.4229    0.9996   -0.3887 C   0  0  0  0  0  0  0  0  0  0  0  0
    0.2603    1.6481    0.0689 C   0  0  0  0  0  0  0  0  0  0  0  0
    0.2373    2.3368    1.3481 C   0  0  0  0  0  0  0  0  0  0  0  0
    0.7659    1.5445    2.8052 S   0  0  0  0  0  0  0  0  0  0  0  0
    0.4255    2.9322    3.7812 C   0  0  0  0  0  0  0  0  0  0  0  0
    0.7385    2.9393    5.2363 C   0  0  0  0  0  0  0  0  0  0  0  0
    2.2368    3.1475    5.4682 C   0  0  0  0  0  0  0  0  0  0  0  0
   -0.0631    3.9430    3.0090 C   0  0  0  0  0  0  0  0  0  0  0  0
   -0.5065    5.4850    3.6174 Cl  0  0  0  0  0  0  0  0  0  0  0  0
   -0.1787    3.6083    1.6322 C   0  0  0  0  0  0  0  0  0  0  0  0
   -0.6990    4.7410    0.4566 Cl  0  0  0  0  0  0  0  0  0  0  0  0
   -0.8632    1.5699   -0.7438 C   0  0  0  0  0  0  0  0  0  0  0  0
   -0.8621    0.8876   -1.9864 C   0  0  0  0  0  0  0  0  0  0  0  0
    0.3132    0.2822   -2.4672 C   0  0  0  0  0  0  0  0  0  0  0  0
    0.3292   -0.3829   -3.7576 C   0  0  0  0  0  0  0  0  0  0  0  0
    0.9553   -1.9961   -3.9333 S   0  0  0  0  0  0  0  0  0  0  0  0
    0.5692   -2.0480   -5.6189 C   0  0  0  0  0  0  0  0  0  0  0  0
    0.9189   -3.2302   -6.4530 C   0  0  0  0  0  0  0  0  0  0  0  0
    2.3808   -3.1632   -6.9018 C   0  0  0  0  0  0  0  0  0  0  0  0
    0.0023   -0.8721   -6.0114 C   0  0  0  0  0  0  0  0  0  0  0  0
   -0.1350    0.0748   -4.9616 C   0  0  0  0  0  0  0  0  0  0  0  0
   -0.7397    1.6598   -5.2357 Cl  0  0  0  0  0  0  0  0  0  0  0  0
   -0.5260   -0.5493   -7.6128 Cl  0  0  0  0  0  0  0  0  0  0  0  0
    1.4268    0.3348   -1.6402 C   0  0  0  0  0  0  0  0  0  0  0  0
    2.9847   -0.3592   -1.9847 S   0  0  0  0  0  0  0  0  0  0  0  0
   -2.1465    0.8638   -2.5745 C   0  0  0  0  0  0  0  0  0  0  0  0
   -3.0949    1.5214   -1.8452 C   0  0  0  0  0  0  0  0  0  0  0  0
   -2.4471    2.1844   -0.3643 S   0  0  0  0  0  0  0  0  0  0  0  0
   -4.4683    1.6666   -2.2081 C   0  0  0  0  0  0  0  0  0  0  0  0
   -5.0027    1.3635   -3.4267 C   0  0  0  0  0  0  0  0  0  0  0  0
   -6.4042    1.5397   -3.4915 C   0  0  0  0  0  0  0  0  0  0  0  0
   -7.2574    1.2808   -4.5795 C   0  0  0  0  0  0  0  0  0  0  0  0
   -6.7437    0.7759   -5.8399 C   0  0  0  0  0  0  0  0  0  0  0  0
   -5.6453   -0.5749   -5.9021 S   0  0  0  0  0  0  0  0  0  0  0  0
   -5.5267   -0.5118   -7.6265 C   0  0  0  0  0  0  0  0  0  0  0  0
   -4.6976   -1.4924   -8.3787 C   0  0  0  0  0  0  0  0  0  0  0  0
   -5.4673   -2.7934   -8.6174 C   0  0  0  0  0  0  0  0  0  0  0  0
   -6.3105    0.4906   -8.1131 C   0  0  0  0  0  0  0  0  0  0  0  0
   -6.4541    0.8652   -9.7800 Cl  0  0  0  0  0  0  0  0  0  0  0  0
   -6.9993    1.2236   -7.1078 C   0  0  0  0  0  0  0  0  0  0  0  0
   -7.9718    2.5852   -7.4775 Cl  0  0  0  0  0  0  0  0  0  0  0  0
   -8.6148    1.4994   -4.3728 C   0  0  0  0  0  0  0  0  0  0  0  0
   -9.1307    2.0176   -3.1602 C   0  0  0  0  0  0  0  0  0  0  0  0
   -8.2744    2.3072   -2.0859 C   0  0  0  0  0  0  0  0  0  0  0  0
   -8.7821    2.8235   -0.8258 C   0  0  0  0  0  0  0  0  0  0  0  0
   -8.4297    2.0341    0.6824 S   0  0  0  0  0  0  0  0  0  0  0  0
   -9.2848    3.2284    1.5951 C   0  0  0  0  0  0  0  0  0  0  0  0
   -9.3218    3.1875    3.0825 C   0  0  0  0  0  0  0  0  0  0  0  0
   -8.2343    4.0850    3.6779 C   0  0  0  0  0  0  0  0  0  0  0  0
   -9.7985    4.1819    0.7677 C   0  0  0  0  0  0  0  0  0  0  0  0
   -9.5334    3.9451   -0.6077 C   0  0  0  0  0  0  0  0  0  0  0  0
  -10.0528    5.0064   -1.8520 Cl  0  0  0  0  0  0  0  0  0  0  0  0
  -10.6610    5.5553    1.3244 Cl  0  0  0  0  0  0  0  0  0  0  0  0
   -6.9271    2.0306   -2.2702 C   0  0  0  0  0  0  0  0  0  0  0  0
   -5.6765    2.2332   -1.0775 S   0  0  0  0  0  0  0  0  0  0  0  0
  -10.5471    2.0265   -3.1555 C   0  0  0  0  0  0  0  0  0  0  0  0
  -11.0952    1.5045   -4.2855 C   0  0  0  0  0  0  0  0  0  0  0  0
   -9.8912    1.0489   -5.4631 S   0  0  0  0  0  0  0  0  0  0  0  0
  -12.4957    1.1768   -4.4550 C   0  0  0  0  0  0  0  0  0  0  0  0
  -13.2694    1.3993   -5.5630 C   0  0  0  0  0  0  0  0  0  0  0  0
  -12.8678    2.0307   -6.8450 C   0  0  0  0  0  0  0  0  0  0  0  0
  -13.9260    2.4616   -7.5488 F   0  0  0  0  0  0  0  0  0  0  0  0
  -12.1992    1.1906   -7.6615 F   0  0  0  0  0  0  0  0  0  0  0  0
  -12.0666    3.0938   -6.6698 F   0  0  0  0  0  0  0  0  0  0  0  0
  -14.9100    0.8881   -5.3455 S   0  0  0  0  0  0  0  0  0  0  0  0
  -14.5510    0.3600   -3.7285 C   0  0  0  0  0  0  0  0  0  0  0  0
  -15.4630   -0.1920   -2.9280 O   0  0  0  0  0  0  0  0  0  0  0  0
  -16.7565   -0.3816   -3.4596 C   0  0  0  0  0  0  0  0  0  0  0  0
  -13.2350    0.5635   -3.3936 C   0  0  0  0  0  0  0  0  0  0  0  0
  -12.6427    0.1993   -2.1181 C   0  0  0  0  0  0  0  0  0  0  0  0
  -13.0582    0.5561   -0.8791 C   0  0  0  0  0  0  0  0  0  0  0  0
  -12.1502    0.1826    0.1509 C   0  0  0  0  0  0  0  0  0  0  0  0
  -12.2206    0.4665    1.5236 C   0  0  0  0  0  0  0  0  0  0  0  0
  -13.2543    1.3319    2.0627 C   0  0  0  0  0  0  0  0  0  0  0  0
  -14.1713    0.9047    3.4756 S   0  0  0  0  0  0  0  0  0  0  0  0
  -15.0469    2.3967    3.4560 C   0  0  0  0  0  0  0  0  0  0  0  0
  -16.1166    2.6797    4.4519 C   0  0  0  0  0  0  0  0  0  0  0  0
  -17.4675    2.1436    3.9721 C   0  0  0  0  0  0  0  0  0  0  0  0
  -14.6465    3.1679    2.4055 C   0  0  0  0  0  0  0  0  0  0  0  0
  -15.2832    4.7251    2.0629 Cl  0  0  0  0  0  0  0  0  0  0  0  0
  -13.6291    2.5705    1.6154 C   0  0  0  0  0  0  0  0  0  0  0  0
  -12.9079    3.3844    0.2889 Cl  0  0  0  0  0  0  0  0  0  0  0  0
  -11.2158   -0.0626    2.3277 C   0  0  0  0  0  0  0  0  0  0  0  0
  -10.1135   -0.7838    1.8128 C   0  0  0  0  0  0  0  0  0  0  0  0
  -10.0185   -1.0254    0.4344 C   0  0  0  0  0  0  0  0  0  0  0  0
   -8.8772   -1.7150   -0.1458 C   0  0  0  0  0  0  0  0  0  0  0  0
   -7.9315   -0.9717   -1.4017 S   0  0  0  0  0  0  0  0  0  0  0  0
   -6.8522   -2.3186   -1.4934 C   0  0  0  0  0  0  0  0  0  0  0  0
   -5.6684   -2.2996   -2.3963 C   0  0  0  0  0  0  0  0  0  0  0  0
   -4.4034   -1.9222   -1.6222 C   0  0  0  0  0  0  0  0  0  0  0  0
   -7.2205   -3.2838   -0.6034 C   0  0  0  0  0  0  0  0  0  0  0  0
   -8.3684   -2.9453    0.1619 C   0  0  0  0  0  0  0  0  0  0  0  0
   -9.0712   -4.0157    1.3039 Cl  0  0  0  0  0  0  0  0  0  0  0  0
   -6.3940   -4.7754   -0.4180 Cl  0  0  0  0  0  0  0  0  0  0  0  0
  -11.0477   -0.5398   -0.3607 C   0  0  0  0  0  0  0  0  0  0  0  0
  -11.1564   -0.7306   -2.0839 S   0  0  0  0  0  0  0  0  0  0  0  0
   -9.1791   -1.1199    2.8366 C   0  0  0  0  0  0  0  0  0  0  0  0
   -9.5684   -0.7023    4.0571 C   0  0  0  0  0  0  0  0  0  0  0  0
  -11.0814    0.1404    4.0521 S   0  0  0  0  0  0  0  0  0  0  0  0
   19.9075   -3.7770    5.6488 H   0  0  0  0  0  0  0  0  0  0  0  0
   18.8225   -4.4489    3.3795 H   0  0  0  0  0  0  0  0  0  0  0  0
   17.1345   -8.2062    0.0830 H   0  0  0  0  0  0  0  0  0  0  0  0
   17.1454   -7.4065   -1.5010 H   0  0  0  0  0  0  0  0  0  0  0  0
   19.4599   -7.4074    0.5010 H   0  0  0  0  0  0  0  0  0  0  0  0
   19.4730   -6.6138   -1.0777 H   0  0  0  0  0  0  0  0  0  0  0  0
   19.3758   -8.3744   -0.9754 H   0  0  0  0  0  0  0  0  0  0  0  0
   13.7755    1.5811    9.8396 H   0  0  0  0  0  0  0  0  0  0  0  0
   14.1286    2.5146    8.3737 H   0  0  0  0  0  0  0  0  0  0  0  0
   11.5840    0.8911    8.8608 H   0  0  0  0  0  0  0  0  0  0  0  0
   11.7152    2.6513    8.9292 H   0  0  0  0  0  0  0  0  0  0  0  0
   11.9486    1.8073    7.3934 H   0  0  0  0  0  0  0  0  0  0  0  0
   12.6696   -1.1020    4.8731 H   0  0  0  0  0  0  0  0  0  0  0  0
   11.2816   -2.3222    0.4578 H   0  0  0  0  0  0  0  0  0  0  0  0
   10.3175   -5.7642   -3.1894 H   0  0  0  0  0  0  0  0  0  0  0  0
   10.5045   -4.7754   -4.6507 H   0  0  0  0  0  0  0  0  0  0  0  0
   12.7128   -5.5749   -3.8125 H   0  0  0  0  0  0  0  0  0  0  0  0
   12.4182   -4.7851   -2.2596 H   0  0  0  0  0  0  0  0  0  0  0  0
   12.6128   -3.8142   -3.7222 H   0  0  0  0  0  0  0  0  0  0  0  0
    6.2484    2.7683    7.4515 H   0  0  0  0  0  0  0  0  0  0  0  0
    7.6549    3.4909    6.6467 H   0  0  0  0  0  0  0  0  0  0  0  0
    8.3105    2.5355    8.8384 H   0  0  0  0  0  0  0  0  0  0  0  0
    9.0967    1.6504    7.5262 H   0  0  0  0  0  0  0  0  0  0  0  0
    7.6989    0.9523    8.3501 H   0  0  0  0  0  0  0  0  0  0  0  0
    5.0171    0.7780    1.9198 H   0  0  0  0  0  0  0  0  0  0  0  0
    2.8909    1.3738    1.2014 H   0  0  0  0  0  0  0  0  0  0  0  0
    0.1754    3.7443    5.7113 H   0  0  0  0  0  0  0  0  0  0  0  0
    0.4342    1.9892    5.6795 H   0  0  0  0  0  0  0  0  0  0  0  0
    2.4534    3.1505    6.5330 H   0  0  0  0  0  0  0  0  0  0  0  0
    2.5575    4.0958    5.0439 H   0  0  0  0  0  0  0  0  0  0  0  0
    2.8043    2.3463    5.0011 H   0  0  0  0  0  0  0  0  0  0  0  0
    0.7583   -4.1424   -5.8760 H   0  0  0  0  0  0  0  0  0  0  0  0
    0.2667   -3.2479   -7.3279 H   0  0  0  0  0  0  0  0  0  0  0  0
    3.0400   -3.1445   -6.0372 H   0  0  0  0  0  0  0  0  0  0  0  0
    2.6249   -4.0302   -7.5096 H   0  0  0  0  0  0  0  0  0  0  0  0
    2.5539   -2.2656   -7.4899 H   0  0  0  0  0  0  0  0  0  0  0  0
   -2.3687    0.3485   -3.4888 H   0  0  0  0  0  0  0  0  0  0  0  0
   -4.4074    1.0367   -4.2573 H   0  0  0  0  0  0  0  0  0  0  0  0
   -3.7871   -1.7054   -7.8153 H   0  0  0  0  0  0  0  0  0  0  0  0
   -4.4202   -1.0497   -9.3370 H   0  0  0  0  0  0  0  0  0  0  0  0
   -4.8504   -3.4957   -9.1716 H   0  0  0  0  0  0  0  0  0  0  0  0
   -6.3705   -2.5962   -9.1891 H   0  0  0  0  0  0  0  0  0  0  0  0
   -5.7478   -3.2458   -7.6690 H   0  0  0  0  0  0  0  0  0  0  0  0
  -10.3028    3.5247    3.4246 H   0  0  0  0  0  0  0  0  0  0  0  0
   -9.1675    2.1615    3.4169 H   0  0  0  0  0  0  0  0  0  0  0  0
   -8.2722    4.0449    4.7631 H   0  0  0  0  0  0  0  0  0  0  0  0
   -7.2522    3.7547    3.3482 H   0  0  0  0  0  0  0  0  0  0  0  0
   -8.3790    5.1145    3.3616 H   0  0  0  0  0  0  0  0  0  0  0  0
  -11.1337    2.3773   -2.3263 H   0  0  0  0  0  0  0  0  0  0  0  0
  -17.3438   -0.8386   -2.6662 H   0  0  0  0  0  0  0  0  0  0  0  0
  -16.7291   -1.0427   -4.3311 H   0  0  0  0  0  0  0  0  0  0  0  0
  -17.2032    0.5740   -3.7515 H   0  0  0  0  0  0  0  0  0  0  0  0
  -13.9746    1.0880   -0.7067 H   0  0  0  0  0  0  0  0  0  0  0  0
  -15.8569    2.2134    5.4035 H   0  0  0  0  0  0  0  0  0  0  0  0
  -16.1841    3.7597    4.5965 H   0  0  0  0  0  0  0  0  0  0  0  0
  -18.2366    2.3567    4.7093 H   0  0  0  0  0  0  0  0  0  0  0  0
  -17.4144    1.0679    3.8227 H   0  0  0  0  0  0  0  0  0  0  0  0
  -17.7461    2.6128    3.0320 H   0  0  0  0  0  0  0  0  0  0  0  0
   -5.8367   -1.5794   -3.1984 H   0  0  0  0  0  0  0  0  0  0  0  0
   -5.5396   -3.2900   -2.8377 H   0  0  0  0  0  0  0  0  0  0  0  0
   -4.5253   -0.9505   -1.1509 H   0  0  0  0  0  0  0  0  0  0  0  0
   -3.5520   -1.8777   -2.2955 H   0  0  0  0  0  0  0  0  0  0  0  0
   -4.1996   -2.6586   -0.8495 H   0  0  0  0  0  0  0  0  0  0  0  0
   -8.2598   -1.6421    2.6491 H   0  0  0  0  0  0  0  0  0  0  0  0
   -9.0591   -0.8309    4.9921 H   0  0  0  0  0  0  0  0  0  0  0  0
  1  2  2  0  0  0  0
  2  3  1  0  0  0  0
  3  4  2  0  0  0  0
  4  5  1  0  0  0  0
  5  6  1  0  0  0  0
  6  7  1  0  0  0  0
  7  8  1  0  0  0  0
  8  9  1  0  0  0  0
  7 10  2  0  0  0  0
 10 11  1  0  0  0  0
 10 12  1  0  0  0  0
 12 13  1  0  0  0  0
  4 14  1  0  0  0  0
 14 15  2  0  0  0  0
 15 16  1  0  0  0  0
 16 17  1  0  0  0  0
 17 18  1  0  0  0  0
 18 19  1  0  0  0  0
 19 20  1  0  0  0  0
 20 21  1  0  0  0  0
 19 22  2  0  0  0  0
 22 23  1  0  0  0  0
 23 24  1  0  0  0  0
 22 25  1  0  0  0  0
 16 26  2  0  0  0  0
 26 27  1  0  0  0  0
 15 28  1  0  0  0  0
 28 29  2  0  0  0  0
 29 30  1  0  0  0  0
 29 31  1  0  0  0  0
 31 32  2  0  0  0  0
 32 33  1  0  0  0  0
 33 34  2  0  0  0  0
 34 35  1  0  0  0  0
 35 36  1  0  0  0  0
 36 37  1  0  0  0  0
 37 38  1  0  0  0  0
 38 39  1  0  0  0  0
 37 40  2  0  0  0  0
 40 41  1  0  0  0  0
 40 42  1  0  0  0  0
 42 43  1  0  0  0  0
 34 44  1  0  0  0  0
 44 45  2  0  0  0  0
 45 46  1  0  0  0  0
 46 47  1  0  0  0  0
 47 48  1  0  0  0  0
 48 49  1  0  0  0  0
 49 50  1  0  0  0  0
 50 51  1  0  0  0  0
 49 52  2  0  0  0  0
 52 53  1  0  0  0  0
 53 54  1  0  0  0  0
 52 55  1  0  0  0  0
 46 56  2  0  0  0  0
 56 57  1  0  0  0  0
 45 58  1  0  0  0  0
 58 59  2  0  0  0  0
 59 60  1  0  0  0  0
 59 61  1  0  0  0  0
 61 62  2  0  0  0  0
 62 63  1  0  0  0  0
 63 64  2  0  0  0  0
 64 65  1  0  0  0  0
 65 66  1  0  0  0  0
 66 67  1  0  0  0  0
 67 68  1  0  0  0  0
 68 69  1  0  0  0  0
 67 70  2  0  0  0  0
 70 71  1  0  0  0  0
 70 72  1  0  0  0  0
 72 73  1  0  0  0  0
 64 74  1  0  0  0  0
 74 75  2  0  0  0  0
 75 76  1  0  0  0  0
 76 77  1  0  0  0  0
 77 78  1  0  0  0  0
 78 79  1  0  0  0  0
 79 80  1  0  0  0  0
 80 81  1  0  0  0  0
 79 82  2  0  0  0  0
 82 83  1  0  0  0  0
 83 84  1  0  0  0  0
 82 85  1  0  0  0  0
 76 86  2  0  0  0  0
 86 87  1  0  0  0  0
 75 88  1  0  0  0  0
 88 89  2  0  0  0  0
 89 90  1  0  0  0  0
 89 91  1  0  0  0  0
 91 92  2  0  0  0  0
 92 93  1  0  0  0  0
 93 94  2  0  0  0  0
 94 95  1  0  0  0  0
 95 96  1  0  0  0  0
 96 97  1  0  0  0  0
 97 98  1  0  0  0  0
 98 99  1  0  0  0  0
 97100  2  0  0  0  0
100101  1  0  0  0  0
100102  1  0  0  0  0
102103  1  0  0  0  0
 94104  1  0  0  0  0
104105  2  0  0  0  0
105106  1  0  0  0  0
106107  1  0  0  0  0
107108  1  0  0  0  0
108109  1  0  0  0  0
109110  1  0  0  0  0
110111  1  0  0  0  0
109112  2  0  0  0  0
112113  1  0  0  0  0
113114  1  0  0  0  0
112115  1  0  0  0  0
106116  2  0  0  0  0
116117  1  0  0  0  0
105118  1  0  0  0  0
118119  2  0  0  0  0
119120  1  0  0  0  0
119121  1  0  0  0  0
121122  2  0  0  0  0
122123  1  0  0  0  0
123124  1  0  0  0  0
123125  1  0  0  0  0
123126  1  0  0  0  0
122127  1  0  0  0  0
127128  1  0  0  0  0
128129  1  0  0  0  0
129130  1  0  0  0  0
128131  2  0  0  0  0
131132  1  0  0  0  0
132133  2  0  0  0  0
133134  1  0  0  0  0
134135  2  0  0  0  0
135136  1  0  0  0  0
136137  1  0  0  0  0
137138  1  0  0  0  0
138139  1  0  0  0  0
139140  1  0  0  0  0
138141  2  0  0  0  0
141142  1  0  0  0  0
141143  1  0  0  0  0
143144  1  0  0  0  0
135145  1  0  0  0  0
145146  2  0  0  0  0
146147  1  0  0  0  0
147148  1  0  0  0  0
148149  1  0  0  0  0
149150  1  0  0  0  0
150151  1  0  0  0  0
151152  1  0  0  0  0
150153  2  0  0  0  0
153154  1  0  0  0  0
154155  1  0  0  0  0
153156  1  0  0  0  0
147157  2  0  0  0  0
157158  1  0  0  0  0
146159  1  0  0  0  0
159160  2  0  0  0  0
160161  1  0  0  0  0
 27  1  1  0  0  0  0
 57 31  1  0  0  0  0
 87 61  1  0  0  0  0
117 91  1  0  0  0  0
131121  1  0  0  0  0
158132  1  0  0  0  0
 26  3  1  0  0  0  0
 56 33  1  0  0  0  0
 86 63  1  0  0  0  0
116 93  1  0  0  0  0
157134  1  0  0  0  0
 12  5  2  0  0  0  0
 30 14  1  0  0  0  0
 42 35  2  0  0  0  0
 60 44  1  0  0  0  0
 72 65  2  0  0  0  0
 90 74  1  0  0  0  0
102 95  2  0  0  0  0
120104  1  0  0  0  0
143136  2  0  0  0  0
161145  1  0  0  0  0
 23 17  2  0  0  0  0
 53 47  2  0  0  0  0
 83 77  2  0  0  0  0
113107  2  0  0  0  0
154148  2  0  0  0  0
  1162  1  0  0  0  0
  2163  1  0  0  0  0
  8164  1  0  0  0  0
  8165  1  0  0  0  0
  9166  1  0  0  0  0
  9167  1  0  0  0  0
  9168  1  0  0  0  0
 20169  1  0  0  0  0
 20170  1  0  0  0  0
 21171  1  0  0  0  0
 21172  1  0  0  0  0
 21173  1  0  0  0  0
 28174  1  0  0  0  0
 32175  1  0  0  0  0
 38176  1  0  0  0  0
 38177  1  0  0  0  0
 39178  1  0  0  0  0
 39179  1  0  0  0  0
 39180  1  0  0  0  0
 50181  1  0  0  0  0
 50182  1  0  0  0  0
 51183  1  0  0  0  0
 51184  1  0  0  0  0
 51185  1  0  0  0  0
 58186  1  0  0  0  0
 62187  1  0  0  0  0
 68188  1  0  0  0  0
 68189  1  0  0  0  0
 69190  1  0  0  0  0
 69191  1  0  0  0  0
 69192  1  0  0  0  0
 80193  1  0  0  0  0
 80194  1  0  0  0  0
 81195  1  0  0  0  0
 81196  1  0  0  0  0
 81197  1  0  0  0  0
 88198  1  0  0  0  0
 92199  1  0  0  0  0
 98200  1  0  0  0  0
 98201  1  0  0  0  0
 99202  1  0  0  0  0
 99203  1  0  0  0  0
 99204  1  0  0  0  0
110205  1  0  0  0  0
110206  1  0  0  0  0
111207  1  0  0  0  0
111208  1  0  0  0  0
111209  1  0  0  0  0
118210  1  0  0  0  0
130211  1  0  0  0  0
130212  1  0  0  0  0
130213  1  0  0  0  0
133214  1  0  0  0  0
139215  1  0  0  0  0
139216  1  0  0  0  0
140217  1  0  0  0  0
140218  1  0  0  0  0
140219  1  0  0  0  0
151220  1  0  0  0  0
151221  1  0  0  0  0
152222  1  0  0  0  0
152223  1  0  0  0  0
152224  1  0  0  0  0
159225  1  0  0  0  0
160226  1  0  0  0  0
M  END
