
  xtb     03022200093D
 energy: -245.033784973034 gnorm: 0.000236611757 xtb: 6.4.1 (unknown)
157173  0     0  0            999 V2000
    3.0142   10.2591   11.8879 C   0  0  0  0  0  0  0  0  0  0  0  0
    2.8878    8.9518   12.1882 C   0  0  0  0  0  0  0  0  0  0  0  0
    2.5147    8.1526   11.0648 C   0  0  0  0  0  0  0  0  0  0  0  0
    2.2965    6.7724   11.0119 C   0  0  0  0  0  0  0  0  0  0  0  0
    2.3983    5.8987   12.2263 C   0  0  0  0  0  0  0  0  0  0  0  0
    1.0879    5.9151   13.0155 C   0  0  0  0  0  0  0  0  0  0  0  0
    1.9305    6.2566    9.7820 C   0  0  0  0  0  0  0  0  0  0  0  0
    1.7857    7.0417    8.6104 C   0  0  0  0  0  0  0  0  0  0  0  0
    2.0153    8.4222    8.6620 C   0  0  0  0  0  0  0  0  0  0  0  0
    1.8370    9.3059    7.4640 C   0  0  0  0  0  0  0  0  0  0  0  0
    0.3690    9.7052    7.3011 C   0  0  0  0  0  0  0  0  0  0  0  0
    2.3682    8.9385    9.8955 C   0  0  0  0  0  0  0  0  0  0  0  0
    2.6913   10.6240   10.2276 S   0  0  0  0  0  0  0  0  0  0  0  0
    1.4052    6.2532    7.4925 C   0  0  0  0  0  0  0  0  0  0  0  0
    1.2602    4.9276    7.7782 C   0  0  0  0  0  0  0  0  0  0  0  0
    1.5879    4.5762    9.4620 S   0  0  0  0  0  0  0  0  0  0  0  0
    0.8861    3.8724    6.8894 C   0  0  0  0  0  0  0  0  0  0  0  0
    0.5802    3.9608    5.5630 C   0  0  0  0  0  0  0  0  0  0  0  0
    0.2446    2.7170    4.9683 C   0  0  0  0  0  0  0  0  0  0  0  0
   -0.1231    2.4579    3.6418 C   0  0  0  0  0  0  0  0  0  0  0  0
   -0.1659    3.5283    2.5931 C   0  0  0  0  0  0  0  0  0  0  0  0
    1.2153    3.7150    1.9618 C   0  0  0  0  0  0  0  0  0  0  0  0
   -0.3888    1.1386    3.3275 C   0  0  0  0  0  0  0  0  0  0  0  0
   -0.3010    0.0707    4.2565 C   0  0  0  0  0  0  0  0  0  0  0  0
    0.0601    0.3312    5.5850 C   0  0  0  0  0  0  0  0  0  0  0  0
    0.1214   -0.7503    6.6213 C   0  0  0  0  0  0  0  0  0  0  0  0
   -1.2688   -1.0262    7.1974 C   0  0  0  0  0  0  0  0  0  0  0  0
    0.3138    1.6517    5.9031 C   0  0  0  0  0  0  0  0  0  0  0  0
    0.7766    2.2290    7.4833 S   0  0  0  0  0  0  0  0  0  0  0  0
   -0.6043   -1.1773    3.6533 C   0  0  0  0  0  0  0  0  0  0  0  0
   -0.9168   -1.0855    2.3284 C   0  0  0  0  0  0  0  0  0  0  0  0
   -0.8653    0.5656    1.7512 S   0  0  0  0  0  0  0  0  0  0  0  0
   -1.2300   -2.1433    1.4200 C   0  0  0  0  0  0  0  0  0  0  0  0
   -1.1304   -3.4877    1.6307 C   0  0  0  0  0  0  0  0  0  0  0  0
   -1.4691   -4.2713    0.4975 C   0  0  0  0  0  0  0  0  0  0  0  0
   -1.4409   -5.6664    0.3643 C   0  0  0  0  0  0  0  0  0  0  0  0
   -1.0155   -6.5664    1.4854 C   0  0  0  0  0  0  0  0  0  0  0  0
    0.5080   -6.7037    1.5193 C   0  0  0  0  0  0  0  0  0  0  0  0
   -1.7585   -6.1707   -0.8825 C   0  0  0  0  0  0  0  0  0  0  0  0
   -2.1408   -5.3589   -1.9815 C   0  0  0  0  0  0  0  0  0  0  0  0
   -2.2247   -3.9679   -1.8340 C   0  0  0  0  0  0  0  0  0  0  0  0
   -2.6513   -3.0691   -2.9556 C   0  0  0  0  0  0  0  0  0  0  0  0
   -1.4868   -2.7504   -3.8922 C   0  0  0  0  0  0  0  0  0  0  0  0
   -1.8554   -3.4627   -0.6027 C   0  0  0  0  0  0  0  0  0  0  0  0
   -1.7760   -1.7670   -0.2002 S   0  0  0  0  0  0  0  0  0  0  0  0
   -2.3544   -6.1286   -3.1504 C   0  0  0  0  0  0  0  0  0  0  0  0
   -2.1425   -7.4655   -2.9713 C   0  0  0  0  0  0  0  0  0  0  0  0
   -1.7123   -7.8626   -1.3233 S   0  0  0  0  0  0  0  0  0  0  0  0
   -2.1219   -8.4557   -3.9923 C   0  0  0  0  0  0  0  0  0  0  0  0
   -2.2137   -7.9936   -5.6631 S   0  0  0  0  0  0  0  0  0  0  0  0
   -1.9021   -9.6190   -6.1995 C   0  0  0  0  0  0  0  0  0  0  0  0
   -1.8237  -10.4757   -5.1197 C   0  0  0  0  0  0  0  0  0  0  0  0
   -1.9206   -9.8162   -3.8696 C   0  0  0  0  0  0  0  0  0  0  0  0
   -1.8923  -10.3909   -2.6390 O   0  0  0  0  0  0  0  0  0  0  0  0
   -0.9561  -11.7545   -2.4337 S   0  0  0  0  0  0  0  0  0  0  0  0
   -1.8250  -12.7825   -3.6437 C   0  0  0  0  0  0  0  0  0  0  0  0
   -1.5174  -12.1953   -5.3432 S   0  0  0  0  0  0  0  0  0  0  0  0
   -1.8297   -9.9929   -7.5820 C   0  0  0  0  0  0  0  0  0  0  0  0
   -1.5118   -9.1923   -8.6142 C   0  0  0  0  0  0  0  0  0  0  0  0
   -1.0513   -7.8307   -8.4586 C   0  0  0  0  0  0  0  0  0  0  0  0
   -0.0853   -7.3815   -7.6153 C   0  0  0  0  0  0  0  0  0  0  0  0
    0.0330   -5.9668   -7.5718 C   0  0  0  0  0  0  0  0  0  0  0  0
    0.8338   -5.1922   -6.7238 C   0  0  0  0  0  0  0  0  0  0  0  0
    1.7881   -5.8071   -5.7438 C   0  0  0  0  0  0  0  0  0  0  0  0
    1.0786   -6.1831   -4.4415 C   0  0  0  0  0  0  0  0  0  0  0  0
    0.6363   -3.8258   -6.7811 C   0  0  0  0  0  0  0  0  0  0  0  0
   -0.2692   -3.1980   -7.6735 C   0  0  0  0  0  0  0  0  0  0  0  0
   -1.0248   -3.9709   -8.5641 C   0  0  0  0  0  0  0  0  0  0  0  0
   -2.0178   -3.3587   -9.5058 C   0  0  0  0  0  0  0  0  0  0  0  0
   -3.3640   -3.1448   -8.8108 C   0  0  0  0  0  0  0  0  0  0  0  0
   -0.8704   -5.3413   -8.4662 C   0  0  0  0  0  0  0  0  0  0  0  0
   -1.8033   -6.5241   -9.3519 S   0  0  0  0  0  0  0  0  0  0  0  0
   -0.3224   -1.7944   -7.4655 C   0  0  0  0  0  0  0  0  0  0  0  0
    0.4713   -1.3599   -6.4479 C   0  0  0  0  0  0  0  0  0  0  0  0
    1.4015   -2.6604   -5.7293 S   0  0  0  0  0  0  0  0  0  0  0  0
    0.5346   -0.0491   -5.8874 C   0  0  0  0  0  0  0  0  0  0  0  0
    1.0862    0.3169   -4.6979 C   0  0  0  0  0  0  0  0  0  0  0  0
    0.8861    1.6838   -4.3694 C   0  0  0  0  0  0  0  0  0  0  0  0
    1.2795    2.3619   -3.2100 C   0  0  0  0  0  0  0  0  0  0  0  0
    1.9826    1.6658   -2.0847 C   0  0  0  0  0  0  0  0  0  0  0  0
    0.9764    0.9315   -1.1972 C   0  0  0  0  0  0  0  0  0  0  0  0
    0.9260    3.6967   -3.1339 C   0  0  0  0  0  0  0  0  0  0  0  0
    0.2272    4.3850   -4.1554 C   0  0  0  0  0  0  0  0  0  0  0  0
   -0.1607    3.7088   -5.3169 C   0  0  0  0  0  0  0  0  0  0  0  0
   -0.9419    4.3769   -6.4087 C   0  0  0  0  0  0  0  0  0  0  0  0
   -2.4381    4.3667   -6.0898 C   0  0  0  0  0  0  0  0  0  0  0  0
    0.1687    2.3675   -5.3824 C   0  0  0  0  0  0  0  0  0  0  0  0
   -0.2524    1.2937   -6.6946 S   0  0  0  0  0  0  0  0  0  0  0  0
    0.0042    5.7519   -3.8067 C   0  0  0  0  0  0  0  0  0  0  0  0
    0.4974    6.0753   -2.5952 C   0  0  0  0  0  0  0  0  0  0  0  0
    1.2686    4.7543   -1.7861 S   0  0  0  0  0  0  0  0  0  0  0  0
    3.2807   11.0648   12.5442 H   0  0  0  0  0  0  0  0  0  0  0  0
    3.0507    8.5554   13.1741 H   0  0  0  0  0  0  0  0  0  0  0  0
    3.2157    6.2394   12.8640 H   0  0  0  0  0  0  0  0  0  0  0  0
    2.6146    4.8751   11.9118 H   0  0  0  0  0  0  0  0  0  0  0  0
    1.1687    5.2819   13.8958 H   0  0  0  0  0  0  0  0  0  0  0  0
    0.8467    6.9270   13.3336 H   0  0  0  0  0  0  0  0  0  0  0  0
    0.2733    5.5458   12.3969 H   0  0  0  0  0  0  0  0  0  0  0  0
    2.4415   10.2066    7.5913 H   0  0  0  0  0  0  0  0  0  0  0  0
    2.1794    8.7897    6.5656 H   0  0  0  0  0  0  0  0  0  0  0  0
   -0.2555    8.8224    7.1823 H   0  0  0  0  0  0  0  0  0  0  0  0
    0.2446   10.3420    6.4285 H   0  0  0  0  0  0  0  0  0  0  0  0
    0.0296   10.2502    8.1788 H   0  0  0  0  0  0  0  0  0  0  0  0
    1.2451    6.6573    6.5100 H   0  0  0  0  0  0  0  0  0  0  0  0
    0.5955    4.8894    5.0227 H   0  0  0  0  0  0  0  0  0  0  0  0
   -0.8774    3.2381    1.8164 H   0  0  0  0  0  0  0  0  0  0  0  0
   -0.5028    4.4698    3.0292 H   0  0  0  0  0  0  0  0  0  0  0  0
    1.1796    4.4782    1.1885 H   0  0  0  0  0  0  0  0  0  0  0  0
    1.9416    4.0110    2.7155 H   0  0  0  0  0  0  0  0  0  0  0  0
    1.5485    2.7843    1.5094 H   0  0  0  0  0  0  0  0  0  0  0  0
    0.5255   -1.6644    6.1829 H   0  0  0  0  0  0  0  0  0  0  0  0
    0.7875   -0.4349    7.4276 H   0  0  0  0  0  0  0  0  0  0  0  0
   -1.2188   -1.8131    7.9461 H   0  0  0  0  0  0  0  0  0  0  0  0
   -1.6654   -0.1281    7.6649 H   0  0  0  0  0  0  0  0  0  0  0  0
   -1.9535   -1.3347    6.4103 H   0  0  0  0  0  0  0  0  0  0  0  0
   -0.5951   -2.1108    4.1852 H   0  0  0  0  0  0  0  0  0  0  0  0
   -0.8024   -3.9060    2.5644 H   0  0  0  0  0  0  0  0  0  0  0  0
   -1.3710   -6.1699    2.4379 H   0  0  0  0  0  0  0  0  0  0  0  0
   -1.4604   -7.5530    1.3380 H   0  0  0  0  0  0  0  0  0  0  0  0
    0.8648   -7.1332    0.5862 H   0  0  0  0  0  0  0  0  0  0  0  0
    0.8115   -7.3522    2.3375 H   0  0  0  0  0  0  0  0  0  0  0  0
    0.9761   -5.7307    1.6512 H   0  0  0  0  0  0  0  0  0  0  0  0
   -3.4543   -3.5438   -3.5225 H   0  0  0  0  0  0  0  0  0  0  0  0
   -3.0349   -2.1371   -2.5334 H   0  0  0  0  0  0  0  0  0  0  0  0
   -0.6724   -2.2875   -3.3394 H   0  0  0  0  0  0  0  0  0  0  0  0
   -1.8072   -2.0640   -4.6726 H   0  0  0  0  0  0  0  0  0  0  0  0
   -1.1154   -3.6583   -4.3615 H   0  0  0  0  0  0  0  0  0  0  0  0
   -2.6257   -5.7168   -4.1062 H   0  0  0  0  0  0  0  0  0  0  0  0
   -2.8923  -12.7631   -3.4311 H   0  0  0  0  0  0  0  0  0  0  0  0
   -1.4276  -13.7908   -3.5819 H   0  0  0  0  0  0  0  0  0  0  0  0
   -2.0698  -11.0321   -7.7734 H   0  0  0  0  0  0  0  0  0  0  0  0
   -1.6089   -9.5659   -9.6243 H   0  0  0  0  0  0  0  0  0  0  0  0
    0.5057   -8.0494   -7.0144 H   0  0  0  0  0  0  0  0  0  0  0  0
    2.5822   -5.0897   -5.5237 H   0  0  0  0  0  0  0  0  0  0  0  0
    2.2436   -6.6970   -6.1815 H   0  0  0  0  0  0  0  0  0  0  0  0
    1.7758   -6.6549   -3.7533 H   0  0  0  0  0  0  0  0  0  0  0  0
    0.6691   -5.2972   -3.9614 H   0  0  0  0  0  0  0  0  0  0  0  0
    0.2623   -6.8734   -4.6392 H   0  0  0  0  0  0  0  0  0  0  0  0
   -2.1576   -4.0267  -10.3588 H   0  0  0  0  0  0  0  0  0  0  0  0
   -1.6397   -2.4046   -9.8765 H   0  0  0  0  0  0  0  0  0  0  0  0
   -3.2500   -2.4859   -7.9529 H   0  0  0  0  0  0  0  0  0  0  0  0
   -3.7619   -4.0958   -8.4643 H   0  0  0  0  0  0  0  0  0  0  0  0
   -4.0782   -2.7005   -9.4997 H   0  0  0  0  0  0  0  0  0  0  0  0
   -0.9582   -1.1267   -8.0193 H   0  0  0  0  0  0  0  0  0  0  0  0
    1.6043   -0.3845   -4.0686 H   0  0  0  0  0  0  0  0  0  0  0  0
    2.5183    2.4054   -1.4852 H   0  0  0  0  0  0  0  0  0  0  0  0
    2.7101    0.9558   -2.4822 H   0  0  0  0  0  0  0  0  0  0  0  0
    0.2604    1.6343   -0.7789 H   0  0  0  0  0  0  0  0  0  0  0  0
    0.4267    0.1880   -1.7694 H   0  0  0  0  0  0  0  0  0  0  0  0
    1.4873    0.4303   -0.3788 H   0  0  0  0  0  0  0  0  0  0  0  0
   -0.6002    5.4055   -6.5360 H   0  0  0  0  0  0  0  0  0  0  0  0
   -0.7715    3.8426   -7.3463 H   0  0  0  0  0  0  0  0  0  0  0  0
   -2.6330    4.8915   -5.1572 H   0  0  0  0  0  0  0  0  0  0  0  0
   -2.9979    4.8503   -6.8868 H   0  0  0  0  0  0  0  0  0  0  0  0
   -2.7924    3.3435   -5.9885 H   0  0  0  0  0  0  0  0  0  0  0  0
   -0.5067    6.4535   -4.4411 H   0  0  0  0  0  0  0  0  0  0  0  0
    0.4610    7.0262   -2.0998 H   0  0  0  0  0  0  0  0  0  0  0  0
  1  2  2  0  0  0  0
  2  3  1  0  0  0  0
  3  4  2  0  0  0  0
  4  5  1  0  0  0  0
  5  6  1  0  0  0  0
  4  7  1  0  0  0  0
  7  8  2  0  0  0  0
  8  9  1  0  0  0  0
  9 10  1  0  0  0  0
 10 11  1  0  0  0  0
  9 12  2  0  0  0  0
 12 13  1  0  0  0  0
  8 14  1  0  0  0  0
 14 15  2  0  0  0  0
 15 16  1  0  0  0  0
 15 17  1  0  0  0  0
 17 18  2  0  0  0  0
 18 19  1  0  0  0  0
 19 20  2  0  0  0  0
 20 21  1  0  0  0  0
 21 22  1  0  0  0  0
 20 23  1  0  0  0  0
 23 24  2  0  0  0  0
 24 25  1  0  0  0  0
 25 26  1  0  0  0  0
 26 27  1  0  0  0  0
 25 28  2  0  0  0  0
 28 29  1  0  0  0  0
 24 30  1  0  0  0  0
 30 31  2  0  0  0  0
 31 32  1  0  0  0  0
 31 33  1  0  0  0  0
 33 34  2  0  0  0  0
 34 35  1  0  0  0  0
 35 36  2  0  0  0  0
 36 37  1  0  0  0  0
 37 38  1  0  0  0  0
 36 39  1  0  0  0  0
 39 40  2  0  0  0  0
 40 41  1  0  0  0  0
 41 42  1  0  0  0  0
 42 43  1  0  0  0  0
 41 44  2  0  0  0  0
 44 45  1  0  0  0  0
 40 46  1  0  0  0  0
 46 47  2  0  0  0  0
 47 48  1  0  0  0  0
 47 49  1  0  0  0  0
 49 50  1  0  0  0  0
 50 51  1  0  0  0  0
 51 52  2  0  0  0  0
 52 53  1  0  0  0  0
 53 54  1  0  0  0  0
 54 55  1  0  0  0  0
 55 56  1  0  0  0  0
 56 57  1  0  0  0  0
 51 58  1  0  0  0  0
 58 59  2  0  0  0  0
 59 60  1  0  0  0  0
 60 61  2  0  0  0  0
 61 62  1  0  0  0  0
 62 63  2  0  0  0  0
 63 64  1  0  0  0  0
 64 65  1  0  0  0  0
 63 66  1  0  0  0  0
 66 67  2  0  0  0  0
 67 68  1  0  0  0  0
 68 69  1  0  0  0  0
 69 70  1  0  0  0  0
 68 71  2  0  0  0  0
 71 72  1  0  0  0  0
 67 73  1  0  0  0  0
 73 74  2  0  0  0  0
 74 75  1  0  0  0  0
 74 76  1  0  0  0  0
 76 77  2  0  0  0  0
 77 78  1  0  0  0  0
 78 79  2  0  0  0  0
 79 80  1  0  0  0  0
 80 81  1  0  0  0  0
 79 82  1  0  0  0  0
 82 83  2  0  0  0  0
 83 84  1  0  0  0  0
 84 85  1  0  0  0  0
 85 86  1  0  0  0  0
 84 87  2  0  0  0  0
 87 88  1  0  0  0  0
 83 89  1  0  0  0  0
 89 90  2  0  0  0  0
 90 91  1  0  0  0  0
 13  1  1  0  0  0  0
 29 17  1  0  0  0  0
 45 33  1  0  0  0  0
 53 49  2  0  0  0  0
 72 60  1  0  0  0  0
 88 76  1  0  0  0  0
 12  3  1  0  0  0  0
 28 19  1  0  0  0  0
 44 35  1  0  0  0  0
 57 52  1  0  0  0  0
 71 62  1  0  0  0  0
 87 78  1  0  0  0  0
 16  7  1  0  0  0  0
 32 23  1  0  0  0  0
 48 39  1  0  0  0  0
 75 66  1  0  0  0  0
 91 82  1  0  0  0  0
  1 92  1  0  0  0  0
  2 93  1  0  0  0  0
  5 94  1  0  0  0  0
  5 95  1  0  0  0  0
  6 96  1  0  0  0  0
  6 97  1  0  0  0  0
  6 98  1  0  0  0  0
 10 99  1  0  0  0  0
 10100  1  0  0  0  0
 11101  1  0  0  0  0
 11102  1  0  0  0  0
 11103  1  0  0  0  0
 14104  1  0  0  0  0
 18105  1  0  0  0  0
 21106  1  0  0  0  0
 21107  1  0  0  0  0
 22108  1  0  0  0  0
 22109  1  0  0  0  0
 22110  1  0  0  0  0
 26111  1  0  0  0  0
 26112  1  0  0  0  0
 27113  1  0  0  0  0
 27114  1  0  0  0  0
 27115  1  0  0  0  0
 30116  1  0  0  0  0
 34117  1  0  0  0  0
 37118  1  0  0  0  0
 37119  1  0  0  0  0
 38120  1  0  0  0  0
 38121  1  0  0  0  0
 38122  1  0  0  0  0
 42123  1  0  0  0  0
 42124  1  0  0  0  0
 43125  1  0  0  0  0
 43126  1  0  0  0  0
 43127  1  0  0  0  0
 46128  1  0  0  0  0
 56129  1  0  0  0  0
 56130  1  0  0  0  0
 58131  1  0  0  0  0
 59132  1  0  0  0  0
 61133  1  0  0  0  0
 64134  1  0  0  0  0
 64135  1  0  0  0  0
 65136  1  0  0  0  0
 65137  1  0  0  0  0
 65138  1  0  0  0  0
 69139  1  0  0  0  0
 69140  1  0  0  0  0
 70141  1  0  0  0  0
 70142  1  0  0  0  0
 70143  1  0  0  0  0
 73144  1  0  0  0  0
 77145  1  0  0  0  0
 80146  1  0  0  0  0
 80147  1  0  0  0  0
 81148  1  0  0  0  0
 81149  1  0  0  0  0
 81150  1  0  0  0  0
 85151  1  0  0  0  0
 85152  1  0  0  0  0
 86153  1  0  0  0  0
 86154  1  0  0  0  0
 86155  1  0  0  0  0
 89156  1  0  0  0  0
 90157  1  0  0  0  0
M  END
