157

C          3.01420       10.25910       11.88790
C          2.88780        8.95180       12.18820
C          2.51470        8.15260       11.06480
C          2.29650        6.77240       11.01190
C          2.39830        5.89870       12.22630
C          1.08790        5.91510       13.01550
C          1.93050        6.25660        9.78200
C          1.78570        7.04170        8.61040
C          2.01530        8.42220        8.66200
C          1.83700        9.30590        7.46400
C          0.36900        9.70520        7.30110
C          2.36820        8.93850        9.89550
S          2.69130       10.62400       10.22760
C          1.40520        6.25320        7.49250
C          1.26020        4.92760        7.77820
S          1.58790        4.57620        9.46200
C          0.88610        3.87240        6.88940
C          0.58020        3.96080        5.56300
C          0.24460        2.71700        4.96830
C         -0.12310        2.45790        3.64180
C         -0.16590        3.52830        2.59310
C          1.21530        3.71500        1.96180
C         -0.38880        1.13860        3.32750
C         -0.30100        0.07070        4.25650
C          0.06010        0.33120        5.58500
C          0.12140       -0.75030        6.62130
C         -1.26880       -1.02620        7.19740
C          0.31380        1.65170        5.90310
S          0.77660        2.22900        7.48330
C         -0.60430       -1.17730        3.65330
C         -0.91680       -1.08550        2.32840
S         -0.86530        0.56560        1.75120
C         -1.23000       -2.14330        1.42000
C         -1.13040       -3.48770        1.63070
C         -1.46910       -4.27130        0.49750
C         -1.44090       -5.66640        0.36430
C         -1.01550       -6.56640        1.48540
C          0.50800       -6.70370        1.51930
C         -1.75850       -6.17070       -0.88250
C         -2.14080       -5.35890       -1.98150
C         -2.22470       -3.96790       -1.83400
C         -2.65130       -3.06910       -2.95560
C         -1.48680       -2.75040       -3.89220
C         -1.85540       -3.46270       -0.60270
S         -1.77600       -1.76700       -0.20020
C         -2.35440       -6.12860       -3.15040
C         -2.14250       -7.46550       -2.97130
S         -1.71230       -7.86260       -1.32330
C         -2.12190       -8.45570       -3.99230
S         -2.21370       -7.99360       -5.66310
C         -1.90210       -9.61900       -6.19950
C         -1.82370      -10.47570       -5.11970
C         -1.92060       -9.81620       -3.86960
O         -1.89230      -10.39090       -2.63900
S         -0.95610      -11.75450       -2.43370
C         -1.82500      -12.78250       -3.64370
S         -1.51740      -12.19530       -5.34320
C         -1.82970       -9.99290       -7.58200
C         -1.51180       -9.19230       -8.61420
C         -1.05130       -7.83070       -8.45860
C         -0.08530       -7.38150       -7.61530
C          0.03300       -5.96680       -7.57180
C          0.83380       -5.19220       -6.72380
C          1.78810       -5.80710       -5.74380
C          1.07860       -6.18310       -4.44150
C          0.63630       -3.82580       -6.78110
C         -0.26920       -3.19800       -7.67350
C         -1.02480       -3.97090       -8.56410
C         -2.01780       -3.35870       -9.50580
C         -3.36400       -3.14480       -8.81080
C         -0.87040       -5.34130       -8.46620
S         -1.80330       -6.52410       -9.35190
C         -0.32240       -1.79440       -7.46550
C          0.47130       -1.35990       -6.44790
S          1.40150       -2.66040       -5.72930
C          0.53460       -0.04910       -5.88740
C          1.08620        0.31690       -4.69790
C          0.88610        1.68380       -4.36940
C          1.27950        2.36190       -3.21000
C          1.98260        1.66580       -2.08470
C          0.97640        0.93150       -1.19720
C          0.92600        3.69670       -3.13390
C          0.22720        4.38500       -4.15540
C         -0.16070        3.70880       -5.31690
C         -0.94190        4.37690       -6.40870
C         -2.43810        4.36670       -6.08980
C          0.16870        2.36750       -5.38240
S         -0.25240        1.29370       -6.69460
C          0.00420        5.75190       -3.80670
C          0.49740        6.07530       -2.59520
S          1.26860        4.75430       -1.78610
H          3.28070       11.06480       12.54420
H          3.05070        8.55540       13.17410
H          3.21570        6.23940       12.86400
H          2.61460        4.87510       11.91180
H          1.16870        5.28190       13.89580
H          0.84670        6.92700       13.33360
H          0.27330        5.54580       12.39690
H          2.44150       10.20660        7.59130
H          2.17940        8.78970        6.56560
H         -0.25550        8.82240        7.18230
H          0.24460       10.34200        6.42850
H          0.02960       10.25020        8.17880
H          1.24510        6.65730        6.51000
H          0.59550        4.88940        5.02270
H         -0.87740        3.23810        1.81640
H         -0.50280        4.46980        3.02920
H          1.17960        4.47820        1.18850
H          1.94160        4.01100        2.71550
H          1.54850        2.78430        1.50940
H          0.52550       -1.66440        6.18290
H          0.78750       -0.43490        7.42760
H         -1.21880       -1.81310        7.94610
H         -1.66540       -0.12810        7.66490
H         -1.95350       -1.33470        6.41030
H         -0.59510       -2.11080        4.18520
H         -0.80240       -3.90600        2.56440
H         -1.37100       -6.16990        2.43790
H         -1.46040       -7.55300        1.33800
H          0.86480       -7.13320        0.58620
H          0.81150       -7.35220        2.33750
H          0.97610       -5.73070        1.65120
H         -3.45430       -3.54380       -3.52250
H         -3.03490       -2.13710       -2.53340
H         -0.67240       -2.28750       -3.33940
H         -1.80720       -2.06400       -4.67260
H         -1.11540       -3.65830       -4.36150
H         -2.62570       -5.71680       -4.10620
H         -2.89230      -12.76310       -3.43110
H         -1.42760      -13.79080       -3.58190
H         -2.06980      -11.03210       -7.77340
H         -1.60890       -9.56590       -9.62430
H          0.50570       -8.04940       -7.01440
H          2.58220       -5.08970       -5.52370
H          2.24360       -6.69700       -6.18150
H          1.77580       -6.65490       -3.75330
H          0.66910       -5.29720       -3.96140
H          0.26230       -6.87340       -4.63920
H         -2.15760       -4.02670      -10.35880
H         -1.63970       -2.40460       -9.87650
H         -3.25000       -2.48590       -7.95290
H         -3.76190       -4.09580       -8.46430
H         -4.07820       -2.70050       -9.49970
H         -0.95820       -1.12670       -8.01930
H          1.60430       -0.38450       -4.06860
H          2.51830        2.40540       -1.48520
H          2.71010        0.95580       -2.48220
H          0.26040        1.63430       -0.77890
H          0.42670        0.18800       -1.76940
H          1.48730        0.43030       -0.37880
H         -0.60020        5.40550       -6.53600
H         -0.77150        3.84260       -7.34630
H         -2.63300        4.89150       -5.15720
H         -2.99790        4.85030       -6.88680
H         -2.79240        3.34350       -5.98850
H         -0.50670        6.45350       -4.44110
H          0.46100        7.02620       -2.09980
