267

C         -3.32130       -5.83250        8.97360
C         -2.56170       -5.07460        8.15820
C         -3.33300       -4.34920        7.20180
C         -2.88130       -3.47740        6.20260
C         -1.46680       -3.31060        5.84530
C         -0.66010       -4.42650        5.62630
C          0.60000       -4.28730        5.08170
C          1.09690       -3.03540        4.74020
S          2.66950       -2.91400        3.92820
C          2.19310       -2.02000        2.38950
C          2.75160       -0.61360        2.31390
C          0.31950       -1.92400        5.04230
F          0.78350       -0.68010        4.79680
C         -0.94540       -2.04750        5.57770
C         -3.85890       -2.85310        5.43780
C         -5.24190       -3.13700        5.54510
C         -5.68830       -4.04100        6.52120
C         -7.10290       -4.41920        6.62460
C         -7.80310       -4.86100        5.50250
C         -9.12090       -5.25010        5.60620
C         -9.79800       -5.20090        6.82330
S        -11.50040       -5.68150        6.82380
C        -11.69410       -6.62510        8.38100
C        -10.73950       -7.79960        8.45530
C         -9.09490       -4.73060        7.92810
C         -7.76720       -4.36270        7.84470
F         -9.69680       -4.61090        9.13170
C         -4.72090       -4.58970        7.35380
S         -5.01780       -5.72470        8.64580
C         -6.00870       -2.42850        4.57610
C         -5.25700       -1.63510        3.76910
S         -3.54740       -1.71320        4.16120
C         -5.59260       -0.83980        2.62770
C         -4.82480        0.16850        2.13280
C         -5.21850        0.60910        0.84660
C         -4.54130        1.53990        0.04250
C         -3.40060        2.27180        0.61240
C         -3.55290        3.00790        1.78750
C         -2.46350        3.58360        2.40320
C         -1.17670        3.44280        1.88260
S          0.14520        4.18550        2.78710
C          1.56120        3.04700        2.50650
C          2.53130        3.16150        3.66650
C         -1.04870        2.75270        0.68050
F          0.15870        2.61270        0.08790
C         -2.13250        2.16980        0.05280
C         -4.93330        1.59930       -1.28260
C         -5.99550        0.81960       -1.80750
C         -6.75940       -0.00910       -0.96500
C         -7.92430       -0.73190       -1.48530
C         -8.88090       -0.05910       -2.24670
C        -10.00200       -0.71430       -2.70610
C        -10.21030       -2.06820       -2.44520
S        -11.66980       -2.80340       -3.11790
C        -12.22140       -3.97980       -1.82750
C        -12.46030       -3.29440       -0.49730
C         -9.22700       -2.73600       -1.72140
C         -8.11220       -2.08620       -1.23200
F         -9.32660       -4.06060       -1.47480
C         -6.32070       -0.12530        0.34720
S         -6.92080       -1.24200        1.55580
C         -6.01830        0.85450       -3.22780
C         -5.04920        1.64140       -3.77130
S         -4.11880        2.49100       -2.54020
C         -4.48780        1.59790       -5.08730
C         -3.56980        2.45050       -5.62260
C         -2.80070        1.87300       -6.66590
C         -1.61820        2.38940       -7.22260
C         -1.24860        3.79940       -7.04670
C         -2.14890        4.80830       -7.37820
C         -1.80400        6.14230       -7.26960
C         -0.54220        6.51700       -6.82180
S          0.03900        8.16940       -6.63520
C         -1.16440        9.18040       -7.56300
C         -1.04680        8.98170       -9.06210
C          0.33580        5.49480       -6.45790
F          1.55940        5.81930       -5.99210
C          0.00550        4.16380       -6.56020
C         -0.78570        1.47010       -7.84060
C         -1.10780        0.09610       -7.99480
C         -2.37100       -0.37080       -7.59620
C         -2.78910       -1.77170       -7.74830
C         -2.03920       -2.82550       -7.22990
C         -2.46300       -4.12780       -7.38360
C         -3.65120       -4.43420       -8.04600
S         -4.09420       -6.14300       -8.13740
C         -4.91650       -6.32790       -9.76280
C         -4.01740       -5.90740      -10.90790
C         -4.41150       -3.36830       -8.51710
C         -3.99140       -2.06010       -8.38370
F         -5.59920       -3.57500       -9.12780
C         -3.17510        0.53100       -6.91550
S         -4.58170        0.08230       -5.97970
C          0.02420       -0.67270       -8.37450
C          1.17340        0.05780       -8.46050
S          0.86160        1.78470       -8.32180
C          2.51070       -0.38030       -8.21710
C          3.56130        0.44290       -7.93570
C          4.56200       -0.15970       -7.13560
C          5.60280        0.51290       -6.47340
C          5.83310        1.93380       -6.76550
C          6.01520        2.37040       -8.07770
C          6.08100        3.71610       -8.36800
C          5.96550        4.67700       -7.36520
S          5.97650        6.37970       -7.82760
C          4.70670        7.10240       -6.70800
C          3.96000        8.20170       -7.43530
C          5.85660        4.22580       -6.05260
F          5.81700        5.10120       -5.02600
C          5.77620        2.88190       -5.74940
C          6.22840       -0.18400       -5.45310
C          5.90880       -1.52590       -5.12200
C          4.94990       -2.23540       -5.87150
C          4.66200       -3.64240       -5.57170
C          5.70300       -4.56660       -5.47520
C          5.44160       -5.89580       -5.23020
C          4.13790       -6.36270       -5.05110
S          3.95430       -8.08330       -4.71580
C          2.26440       -8.49710       -5.30700
C          2.18510       -9.99310       -5.53930
C          3.11410       -5.42200       -5.10960
C          3.36080       -4.09100       -5.37850
F          1.82550       -5.77330       -4.89120
C          4.26110       -1.51090       -6.83180
S          2.81250       -2.02610       -7.67230
C          6.48870       -1.91470       -3.88730
C          7.24070       -0.93780       -3.30420
S          7.36380        0.49100       -4.31740
C          7.64800       -0.85090       -1.92540
C          8.58090        0.12780       -1.45200
C          9.53130        0.87100       -2.10460
S         10.38130        1.89040       -1.02860
C          9.46950        1.35560        0.31570
C          8.54930        0.40370       -0.04080
C          7.61430       -0.34850        0.74880
N          6.97360       -1.37060        0.21410
N          6.97870       -1.60110       -1.07220
C          7.27860        0.07510        2.07830
C          6.41810       -0.55950        2.90110
C          5.92930        0.01830        4.10920
C          5.07560       -0.53520        5.02100
C          4.69980        0.34320        6.07000
C          3.81960        0.10830        7.14180
C          3.20440       -1.20050        7.38790
C          1.85230       -1.30030        7.71370
C          1.28820       -2.51930        8.02360
C          2.04320       -3.68630        7.99900
S          1.23670       -5.21680        8.38250
C          2.37260       -5.97090        9.60480
C          2.55310       -5.08860       10.82350
C          3.38050       -3.58280        7.63230
F          4.15830       -4.68360        7.56210
C          3.96540       -2.36560        7.34990
C          3.57680        1.18060        7.99350
C          4.15940        2.45880        7.82310
C          5.03020        2.69620        6.75120
C          5.62250        4.01840        6.51460
C          6.99550        4.17170        6.35400
C          7.55260        5.41280        6.11420
C          6.75200        6.54450        6.01000
S          7.33380        8.18160        5.71690
C          9.01620        7.93850        5.04940
C          9.00360        7.29750        3.67490
C          5.37640        6.37620        6.18060
C          4.80950        5.14690        6.43030
F          4.56950        7.45260        6.09570
C          5.29170        1.62310        5.91450
S          6.32230        1.68560        4.51290
C          3.79480        3.35440        8.87200
C          2.98390        2.78710        9.78680
S          2.59780        1.13630        9.44060
H         -2.99670       -6.46570        9.77590
H         -1.49060       -5.01280        8.22530
H         -1.04300       -5.41270        5.83600
H          1.20800       -5.15580        4.88360
H          1.10460       -2.02280        2.35990
H          2.57530       -2.63270        1.57330
H          2.34510       -0.11210        1.43730
H          2.48560       -0.04420        3.20060
H          3.83410       -0.63420        2.22430
H         -1.50700       -1.15190        5.79280
H         -7.29750       -4.93220        4.55170
H         -9.65490       -5.60650        4.73910
H        -11.57500       -5.94780        9.22370
H        -12.73010       -6.96170        8.33940
H        -10.85930       -8.44490        7.58740
H        -10.94260       -8.37930        9.35350
H         -9.70620       -7.45930        8.49300
H         -7.27300       -4.00300        8.73360
H         -7.07890       -2.49650        4.49610
H         -3.96180        0.55000        2.64860
H         -4.53530        3.11830        2.22140
H         -2.58370        4.14130        3.31890
H          1.15150        2.04100        2.43890
H          2.03900        3.31820        1.56620
H          3.39530        2.52610        3.48210
H          2.87470        4.18740        3.78040
H          2.05910        2.84690        4.59470
H         -1.96690        1.61960       -0.86030
H         -8.75500        0.99370       -2.44920
H        -10.74820       -0.18540       -3.27830
H        -13.15000       -4.37720       -2.23750
H        -11.49560       -4.78590       -1.74780
H        -12.86810       -4.00950        0.21420
H        -13.16510       -2.47340       -0.61160
H        -11.53150       -2.89870       -0.09050
H         -7.38120       -2.66160       -0.68670
H         -6.67580        0.24580       -3.82340
H         -3.36420        3.42270       -5.21000
H         -3.12970        4.54390       -7.74460
H         -2.53220        6.89030       -7.53850
H         -0.90450       10.20210       -7.28580
H         -2.16440        8.96490       -7.18910
H         -1.25020        7.94900       -9.33760
H         -1.75650        9.62580       -9.57760
H         -0.04280        9.23360       -9.39530
H          0.72240        3.42470       -6.24180
H         -1.13100       -2.62200       -6.68410
H         -1.87750       -4.94130       -6.98390
H         -5.13520       -7.39500       -9.80710
H         -5.85290       -5.77490       -9.75340
H         -3.80430       -4.84110      -10.86360
H         -4.50870       -6.11930      -11.85530
H         -3.07500       -6.45010      -10.87270
H         -4.61400       -1.27210       -8.77880
H          0.01180       -1.74290       -8.47360
H          3.55850        1.49030       -8.18060
H          6.09280        1.64440       -8.87310
H          6.20080        4.05200       -9.38630
H          5.21220        7.48280       -5.82170
H          4.02820        6.29990       -6.42870
H          3.49690        7.81100       -8.33870
H          4.63220        9.01100       -7.71140
H          3.17860        8.59320       -6.78760
H          5.64330        2.59270       -4.71900
H          6.72090       -4.23880       -5.62180
H          6.24870       -6.60970       -5.17340
H          1.54690       -8.17830       -4.55270
H          2.10020       -7.94580       -6.23160
H          2.38800      -10.53340       -4.61740
H          2.91110      -10.30360       -6.28750
H          1.18840      -10.25690       -5.88620
H          2.52500       -3.41000       -5.39480
H          6.29680       -2.85340       -3.40140
H          9.80000        0.85410       -3.14110
H          9.68980        1.74140        1.29040
H          7.68980        1.02890        2.38370
H          6.03930       -1.53450        2.62750
H          4.69540       -1.53520        4.91930
H          1.23450       -0.41620        7.71390
H          0.24450       -2.58640        8.28870
H          1.88320       -6.90930        9.86440
H          3.31860       -6.18780        9.11360
H          3.18080       -5.59560       11.55360
H          3.02930       -4.14740       10.55340
H          1.59110       -4.86860       11.28180
H          5.01800       -2.33870        7.11640
H          7.64200        3.31160        6.43940
H          8.62310        5.49190        6.01790
H          9.60160        7.36920        5.77060
H          9.41700        8.95100        5.00180
H          8.55240        6.30790        3.70860
H         10.02150        7.20390        3.30110
H          8.43290        7.91010        2.98090
H          3.73810        5.07010        6.53100
H          4.14990        4.36700        8.93320
H          2.56920        3.23390       10.66920
