
  xtb     03042211583D
 energy: -415.930989450107 gnorm: 0.000338072089 xtb: 6.4.1 (unknown)
234257  0     0  0            999 V2000
  -12.8292   -4.7109   -3.0163 C   0  0  0  0  0  0  0  0  0  0  0  0
  -11.5438   -4.9927   -3.3108 C   0  0  0  0  0  0  0  0  0  0  0  0
  -10.6857   -3.8602   -3.1865 C   0  0  0  0  0  0  0  0  0  0  0  0
   -9.3106   -3.7830   -3.4471 C   0  0  0  0  0  0  0  0  0  0  0  0
   -8.4833   -4.9516   -3.7725 C   0  0  0  0  0  0  0  0  0  0  0  0
   -8.4945   -6.0840   -2.9600 C   0  0  0  0  0  0  0  0  0  0  0  0
   -7.5944   -7.1077   -3.1722 C   0  0  0  0  0  0  0  0  0  0  0  0
   -6.6644   -7.0456   -4.2054 C   0  0  0  0  0  0  0  0  0  0  0  0
   -5.4830   -8.3567   -4.3695 S   0  0  0  0  0  0  0  0  0  0  0  0
   -3.9113   -7.4213   -4.5030 C   0  0  0  0  0  0  0  0  0  0  0  0
   -3.6968   -6.5058   -3.3142 C   0  0  0  0  0  0  0  0  0  0  0  0
   -6.7173   -5.9468   -5.0569 C   0  0  0  0  0  0  0  0  0  0  0  0
   -5.8888   -5.8619   -6.1187 F   0  0  0  0  0  0  0  0  0  0  0  0
   -7.5953   -4.9047   -4.8428 C   0  0  0  0  0  0  0  0  0  0  0  0
   -8.7203   -2.5352   -3.3079 C   0  0  0  0  0  0  0  0  0  0  0  0
   -9.4288   -1.3855   -2.8852 C   0  0  0  0  0  0  0  0  0  0  0  0
  -10.8076   -1.4601   -2.6288 C   0  0  0  0  0  0  0  0  0  0  0  0
  -11.5390   -0.2598   -2.2099 C   0  0  0  0  0  0  0  0  0  0  0  0
  -11.3953    0.9314   -2.9190 C   0  0  0  0  0  0  0  0  0  0  0  0
  -11.9985    2.0954   -2.4896 C   0  0  0  0  0  0  0  0  0  0  0  0
  -12.7599    2.1151   -1.3257 C   0  0  0  0  0  0  0  0  0  0  0  0
  -13.5166    3.5585   -0.6556 S   0  0  0  0  0  0  0  0  0  0  0  0
  -12.4712    4.9157   -1.2971 C   0  0  0  0  0  0  0  0  0  0  0  0
  -11.0460    4.8407   -0.7853 C   0  0  0  0  0  0  0  0  0  0  0  0
  -12.9436    0.9033   -0.6582 C   0  0  0  0  0  0  0  0  0  0  0  0
  -12.3527   -0.2677   -1.0800 C   0  0  0  0  0  0  0  0  0  0  0  0
  -13.7027    0.8749    0.4543 F   0  0  0  0  0  0  0  0  0  0  0  0
  -11.4014   -2.7045   -2.7860 C   0  0  0  0  0  0  0  0  0  0  0  0
  -13.0948   -3.0614   -2.5666 S   0  0  0  0  0  0  0  0  0  0  0  0
   -8.5686   -0.2701   -2.7143 C   0  0  0  0  0  0  0  0  0  0  0  0
   -7.2687   -0.5315   -3.0222 C   0  0  0  0  0  0  0  0  0  0  0  0
   -7.0247   -2.1901   -3.5340 S   0  0  0  0  0  0  0  0  0  0  0  0
   -6.1584    0.3586   -2.9541 C   0  0  0  0  0  0  0  0  0  0  0  0
   -4.8886    0.1355   -3.3929 C   0  0  0  0  0  0  0  0  0  0  0  0
   -4.0049    1.2154   -3.1472 C   0  0  0  0  0  0  0  0  0  0  0  0
   -2.6379    1.2946   -3.4555 C   0  0  0  0  0  0  0  0  0  0  0  0
   -1.9445    0.1443   -4.0509 C   0  0  0  0  0  0  0  0  0  0  0  0
   -1.2090    0.2500   -5.2281 C   0  0  0  0  0  0  0  0  0  0  0  0
   -0.5732   -0.8524   -5.7545 C   0  0  0  0  0  0  0  0  0  0  0  0
   -0.6191   -2.0997   -5.1257 C   0  0  0  0  0  0  0  0  0  0  0  0
    0.2978   -3.3753   -5.9248 S   0  0  0  0  0  0  0  0  0  0  0  0
    0.2180   -4.8498   -4.8353 C   0  0  0  0  0  0  0  0  0  0  0  0
    1.1147   -5.9226   -5.4232 C   0  0  0  0  0  0  0  0  0  0  0  0
   -1.3619   -2.1878   -3.9543 C   0  0  0  0  0  0  0  0  0  0  0  0
   -1.4746   -3.3543   -3.2662 F   0  0  0  0  0  0  0  0  0  0  0  0
   -2.0190   -1.0951   -3.4263 C   0  0  0  0  0  0  0  0  0  0  0  0
   -1.9841    2.4645   -3.1015 C   0  0  0  0  0  0  0  0  0  0  0  0
   -2.6220    3.5161   -2.3863 C   0  0  0  0  0  0  0  0  0  0  0  0
   -3.9959    3.4422   -2.0915 C   0  0  0  0  0  0  0  0  0  0  0  0
   -4.7044    4.4830   -1.3355 C   0  0  0  0  0  0  0  0  0  0  0  0
   -4.2360    4.9353   -0.1029 C   0  0  0  0  0  0  0  0  0  0  0  0
   -4.9448    5.8770    0.6120 C   0  0  0  0  0  0  0  0  0  0  0  0
   -6.1490    6.3968    0.1401 C   0  0  0  0  0  0  0  0  0  0  0  0
   -6.9971    7.5485    1.1807 S   0  0  0  0  0  0  0  0  0  0  0  0
   -7.6814    8.7869    0.0177 C   0  0  0  0  0  0  0  0  0  0  0  0
   -6.6013    9.4297   -0.8286 C   0  0  0  0  0  0  0  0  0  0  0  0
   -6.6151    5.9180   -1.0798 C   0  0  0  0  0  0  0  0  0  0  0  0
   -5.9066    4.9921   -1.8170 C   0  0  0  0  0  0  0  0  0  0  0  0
   -7.7947    6.3434   -1.5893 F   0  0  0  0  0  0  0  0  0  0  0  0
   -4.6579    2.2983   -2.5079 C   0  0  0  0  0  0  0  0  0  0  0  0
   -6.3440    1.9420   -2.2249 S   0  0  0  0  0  0  0  0  0  0  0  0
   -1.7035    4.5213   -2.0072 C   0  0  0  0  0  0  0  0  0  0  0  0
   -0.4205    4.2608   -2.4066 C   0  0  0  0  0  0  0  0  0  0  0  0
   -0.2871    2.7821   -3.3401 S   0  0  0  0  0  0  0  0  0  0  0  0
    0.7653    4.9171   -1.9926 C   0  0  0  0  0  0  0  0  0  0  0  0
    0.8570    5.8088   -0.5168 S   0  0  0  0  0  0  0  0  0  0  0  0
    2.5947    5.9125   -0.5557 C   0  0  0  0  0  0  0  0  0  0  0  0
    3.0825    5.3094   -1.7144 C   0  0  0  0  0  0  0  0  0  0  0  0
    2.0385    4.7772   -2.5521 C   0  0  0  0  0  0  0  0  0  0  0  0
    2.2850    4.2076   -3.7396 N   0  0  0  0  0  0  0  0  0  0  0  0
    3.5393    4.1271   -4.0862 C   0  0  0  0  0  0  0  0  0  0  0  0
    4.5933    4.3766   -3.3047 N   0  0  0  0  0  0  0  0  0  0  0  0
    4.3840    4.9148   -2.1208 C   0  0  0  0  0  0  0  0  0  0  0  0
    5.4890    4.9394   -1.2266 C   0  0  0  0  0  0  0  0  0  0  0  0
    6.3644    4.8655   -0.4906 N   0  0  0  0  0  0  0  0  0  0  0  0
    3.3022    6.4582    0.5448 C   0  0  0  0  0  0  0  0  0  0  0  0
    4.5012    7.0918    0.4797 C   0  0  0  0  0  0  0  0  0  0  0  0
    5.2629    7.4192    1.6229 C   0  0  0  0  0  0  0  0  0  0  0  0
    5.0208    6.6356    3.1414 S   0  0  0  0  0  0  0  0  0  0  0  0
    6.3019    7.4895    3.9436 C   0  0  0  0  0  0  0  0  0  0  0  0
    6.8902    8.3890    3.0428 C   0  0  0  0  0  0  0  0  0  0  0  0
    6.3266    8.3250    1.7195 C   0  0  0  0  0  0  0  0  0  0  0  0
    6.7640    9.0851    0.7060 N   0  0  0  0  0  0  0  0  0  0  0  0
    7.7488    9.8959    0.9788 C   0  0  0  0  0  0  0  0  0  0  0  0
    8.3624   10.0463    2.1554 N   0  0  0  0  0  0  0  0  0  0  0  0
    7.9582    9.3150    3.1736 C   0  0  0  0  0  0  0  0  0  0  0  0
    8.6580    9.5254    4.3944 C   0  0  0  0  0  0  0  0  0  0  0  0
    9.2390    9.7225    5.3623 N   0  0  0  0  0  0  0  0  0  0  0  0
    6.7096    7.2912    5.2943 C   0  0  0  0  0  0  0  0  0  0  0  0
    6.6611    6.1957    6.0894 C   0  0  0  0  0  0  0  0  0  0  0  0
    6.1731    4.8820    5.7902 C   0  0  0  0  0  0  0  0  0  0  0  0
    5.0660    4.4615    5.1183 C   0  0  0  0  0  0  0  0  0  0  0  0
    5.0349    3.0633    4.8863 C   0  0  0  0  0  0  0  0  0  0  0  0
    4.1543    2.3622    4.0614 C   0  0  0  0  0  0  0  0  0  0  0  0
    3.0104    2.9297    3.3315 C   0  0  0  0  0  0  0  0  0  0  0  0
    1.8953    3.4476    3.9821 C   0  0  0  0  0  0  0  0  0  0  0  0
    0.7272    3.6801    3.2821 C   0  0  0  0  0  0  0  0  0  0  0  0
    0.6431    3.4153    1.9197 C   0  0  0  0  0  0  0  0  0  0  0  0
   -0.9284    3.5339    1.1070 S   0  0  0  0  0  0  0  0  0  0  0  0
   -1.0232    1.9059    0.2715 C   0  0  0  0  0  0  0  0  0  0  0  0
   -0.8639    0.7510    1.2375 C   0  0  0  0  0  0  0  0  0  0  0  0
    1.8051    3.0255    1.2627 C   0  0  0  0  0  0  0  0  0  0  0  0
    1.8108    2.8449   -0.0757 F   0  0  0  0  0  0  0  0  0  0  0  0
    2.9727    2.7741    1.9482 C   0  0  0  0  0  0  0  0  0  0  0  0
    4.4070    1.0115    3.8897 C   0  0  0  0  0  0  0  0  0  0  0  0
    5.4660    0.3117    4.5140 C   0  0  0  0  0  0  0  0  0  0  0  0
    6.3645    1.0250    5.3296 C   0  0  0  0  0  0  0  0  0  0  0  0
    7.5111    0.3621    5.9613 C   0  0  0  0  0  0  0  0  0  0  0  0
    7.7775    0.5272    7.3195 C   0  0  0  0  0  0  0  0  0  0  0  0
    8.8285   -0.1368    7.9139 C   0  0  0  0  0  0  0  0  0  0  0  0
    9.6673   -0.9761    7.1815 C   0  0  0  0  0  0  0  0  0  0  0  0
   10.9913   -1.7554    8.0542 S   0  0  0  0  0  0  0  0  0  0  0  0
   11.1112   -3.4224    7.3042 C   0  0  0  0  0  0  0  0  0  0  0  0
    9.8064   -4.1871    7.4016 C   0  0  0  0  0  0  0  0  0  0  0  0
    9.4205   -1.0889    5.8163 C   0  0  0  0  0  0  0  0  0  0  0  0
    8.3569   -0.4502    5.2125 C   0  0  0  0  0  0  0  0  0  0  0  0
   10.2204   -1.8371    5.0238 F   0  0  0  0  0  0  0  0  0  0  0  0
    6.1298    2.3866    5.4816 C   0  0  0  0  0  0  0  0  0  0  0  0
    7.1710    3.5195    6.3041 S   0  0  0  0  0  0  0  0  0  0  0  0
    5.4616   -1.0675    4.1554 C   0  0  0  0  0  0  0  0  0  0  0  0
    4.4793   -1.3915    3.2685 C   0  0  0  0  0  0  0  0  0  0  0  0
    3.4545   -0.0263    2.8770 S   0  0  0  0  0  0  0  0  0  0  0  0
    4.2073   -2.5874    2.5257 C   0  0  0  0  0  0  0  0  0  0  0  0
    4.4721   -3.9021    2.7556 C   0  0  0  0  0  0  0  0  0  0  0  0
    4.0164   -4.7587    1.7109 C   0  0  0  0  0  0  0  0  0  0  0  0
    4.1212   -6.1549    1.5993 C   0  0  0  0  0  0  0  0  0  0  0  0
    4.8167   -6.9540    2.6150 C   0  0  0  0  0  0  0  0  0  0  0  0
    6.1025   -6.6124    3.0331 C   0  0  0  0  0  0  0  0  0  0  0  0
    6.7656   -7.3833    3.9624 C   0  0  0  0  0  0  0  0  0  0  0  0
    6.1734   -8.5125    4.5269 C   0  0  0  0  0  0  0  0  0  0  0  0
    7.1138   -9.3867    5.7412 S   0  0  0  0  0  0  0  0  0  0  0  0
    6.7012  -11.1489    5.4662 C   0  0  0  0  0  0  0  0  0  0  0  0
    7.0053  -11.5920    4.0495 C   0  0  0  0  0  0  0  0  0  0  0  0
    4.8781   -8.8224    4.1228 C   0  0  0  0  0  0  0  0  0  0  0  0
    4.2162   -9.8713    4.6579 F   0  0  0  0  0  0  0  0  0  0  0  0
    4.2127   -8.0757    3.1716 C   0  0  0  0  0  0  0  0  0  0  0  0
    3.5670   -6.7366    0.4650 C   0  0  0  0  0  0  0  0  0  0  0  0
    2.9676   -5.9951   -0.5842 C   0  0  0  0  0  0  0  0  0  0  0  0
    2.8722   -4.6056   -0.4811 C   0  0  0  0  0  0  0  0  0  0  0  0
    2.4160   -3.6904   -1.5394 C   0  0  0  0  0  0  0  0  0  0  0  0
    3.0632   -3.6622   -2.7728 C   0  0  0  0  0  0  0  0  0  0  0  0
    2.8707   -2.6003   -3.6355 C   0  0  0  0  0  0  0  0  0  0  0  0
    2.0326   -1.5480   -3.2925 C   0  0  0  0  0  0  0  0  0  0  0  0
    2.0086   -0.0648   -4.2805 S   0  0  0  0  0  0  0  0  0  0  0  0
    3.6304    0.5892   -3.7351 C   0  0  0  0  0  0  0  0  0  0  0  0
    3.6068    1.0272   -2.2851 C   0  0  0  0  0  0  0  0  0  0  0  0
    1.2998   -1.6463   -2.1174 C   0  0  0  0  0  0  0  0  0  0  0  0
    1.4830   -2.7000   -1.2431 C   0  0  0  0  0  0  0  0  0  0  0  0
    0.4378   -0.6728   -1.7704 F   0  0  0  0  0  0  0  0  0  0  0  0
    3.3751   -4.0339    0.6791 C   0  0  0  0  0  0  0  0  0  0  0  0
    3.3767   -2.3291    1.0030 S   0  0  0  0  0  0  0  0  0  0  0  0
    2.5262   -6.8367   -1.6472 C   0  0  0  0  0  0  0  0  0  0  0  0
    2.7883   -8.1398   -1.4241 C   0  0  0  0  0  0  0  0  0  0  0  0
    3.5822   -8.4405    0.0843 S   0  0  0  0  0  0  0  0  0  0  0  0
  -13.6697   -5.3770   -3.0321 H   0  0  0  0  0  0  0  0  0  0  0  0
  -11.1994   -5.9610   -3.6258 H   0  0  0  0  0  0  0  0  0  0  0  0
   -9.1786   -6.1355   -2.1266 H   0  0  0  0  0  0  0  0  0  0  0  0
   -7.5798   -7.9675   -2.5205 H   0  0  0  0  0  0  0  0  0  0  0  0
   -3.1537   -8.2038   -4.5420 H   0  0  0  0  0  0  0  0  0  0  0  0
   -3.9074   -6.8759   -5.4445 H   0  0  0  0  0  0  0  0  0  0  0  0
   -3.7270   -7.0723   -2.3857 H   0  0  0  0  0  0  0  0  0  0  0  0
   -2.7284   -6.0148   -3.3896 H   0  0  0  0  0  0  0  0  0  0  0  0
   -4.4648   -5.7351   -3.2732 H   0  0  0  0  0  0  0  0  0  0  0  0
   -7.5863   -4.0693   -5.5253 H   0  0  0  0  0  0  0  0  0  0  0  0
  -10.8144    0.9413   -3.8290 H   0  0  0  0  0  0  0  0  0  0  0  0
  -11.8703    2.9958   -3.0685 H   0  0  0  0  0  0  0  0  0  0  0  0
  -12.5220    4.9154   -2.3853 H   0  0  0  0  0  0  0  0  0  0  0  0
  -12.9712    5.8111   -0.9283 H   0  0  0  0  0  0  0  0  0  0  0  0
  -10.5627    3.9196   -1.1052 H   0  0  0  0  0  0  0  0  0  0  0  0
  -10.4697    5.6803   -1.1683 H   0  0  0  0  0  0  0  0  0  0  0  0
  -11.0328    4.8753    0.3015 H   0  0  0  0  0  0  0  0  0  0  0  0
  -12.5013   -1.1670   -0.5036 H   0  0  0  0  0  0  0  0  0  0  0  0
   -8.8950    0.6893   -2.3549 H   0  0  0  0  0  0  0  0  0  0  0  0
   -4.5984   -0.7728   -3.8900 H   0  0  0  0  0  0  0  0  0  0  0  0
   -1.1391    1.1995   -5.7349 H   0  0  0  0  0  0  0  0  0  0  0  0
   -0.0047   -0.7676   -6.6669 H   0  0  0  0  0  0  0  0  0  0  0  0
   -0.8171   -5.1860   -4.7956 H   0  0  0  0  0  0  0  0  0  0  0  0
    0.5549   -4.5538   -3.8427 H   0  0  0  0  0  0  0  0  0  0  0  0
    0.8073   -6.1591   -6.4391 H   0  0  0  0  0  0  0  0  0  0  0  0
    2.1484   -5.5848   -5.4466 H   0  0  0  0  0  0  0  0  0  0  0  0
    1.0520   -6.8288   -4.8235 H   0  0  0  0  0  0  0  0  0  0  0  0
   -2.5599   -1.2198   -2.5008 H   0  0  0  0  0  0  0  0  0  0  0  0
   -3.3228    4.5333    0.3078 H   0  0  0  0  0  0  0  0  0  0  0  0
   -4.5782    6.2236    1.5655 H   0  0  0  0  0  0  0  0  0  0  0  0
   -8.1488    9.5162    0.6793 H   0  0  0  0  0  0  0  0  0  0  0  0
   -8.4509    8.3169   -0.5906 H   0  0  0  0  0  0  0  0  0  0  0  0
   -6.1357    8.6975   -1.4858 H   0  0  0  0  0  0  0  0  0  0  0  0
   -7.0367   10.2147   -1.4436 H   0  0  0  0  0  0  0  0  0  0  0  0
   -5.8307    9.8664   -0.1969 H   0  0  0  0  0  0  0  0  0  0  0  0
   -6.3060    4.6744   -2.7675 H   0  0  0  0  0  0  0  0  0  0  0  0
   -1.9708    5.3997   -1.4480 H   0  0  0  0  0  0  0  0  0  0  0  0
    3.7609    3.7667   -5.0813 H   0  0  0  0  0  0  0  0  0  0  0  0
    2.8241    6.3506    1.5123 H   0  0  0  0  0  0  0  0  0  0  0  0
    4.9259    7.3959   -0.4666 H   0  0  0  0  0  0  0  0  0  0  0  0
    8.1165   10.5186    0.1749 H   0  0  0  0  0  0  0  0  0  0  0  0
    7.2414    8.1413    5.7034 H   0  0  0  0  0  0  0  0  0  0  0  0
    7.1856    6.2709    7.0338 H   0  0  0  0  0  0  0  0  0  0  0  0
    4.2526    5.1033    4.8421 H   0  0  0  0  0  0  0  0  0  0  0  0
    1.9237    3.6029    5.0499 H   0  0  0  0  0  0  0  0  0  0  0  0
   -0.1579    4.0257    3.7929 H   0  0  0  0  0  0  0  0  0  0  0  0
   -2.0161    1.9085   -0.1778 H   0  0  0  0  0  0  0  0  0  0  0  0
   -0.2783    1.8686   -0.5205 H   0  0  0  0  0  0  0  0  0  0  0  0
   -1.0006   -0.1814    0.6947 H   0  0  0  0  0  0  0  0  0  0  0  0
    0.1301    0.7445    1.6825 H   0  0  0  0  0  0  0  0  0  0  0  0
   -1.6029    0.8082    2.0342 H   0  0  0  0  0  0  0  0  0  0  0  0
    3.8399    2.4390    1.4004 H   0  0  0  0  0  0  0  0  0  0  0  0
    7.1353    1.1546    7.9181 H   0  0  0  0  0  0  0  0  0  0  0  0
    9.0187   -0.0227    8.9695 H   0  0  0  0  0  0  0  0  0  0  0  0
   11.4541   -3.3266    6.2765 H   0  0  0  0  0  0  0  0  0  0  0  0
   11.8914   -3.9020    7.8951 H   0  0  0  0  0  0  0  0  0  0  0  0
    9.9455   -5.1989    7.0260 H   0  0  0  0  0  0  0  0  0  0  0  0
    9.0281   -3.7064    6.8117 H   0  0  0  0  0  0  0  0  0  0  0  0
    9.4715   -4.2416    8.4352 H   0  0  0  0  0  0  0  0  0  0  0  0
    8.2220   -0.5623    4.1477 H   0  0  0  0  0  0  0  0  0  0  0  0
    6.1758   -1.7816    4.5227 H   0  0  0  0  0  0  0  0  0  0  0  0
    4.9463   -4.2609    3.6511 H   0  0  0  0  0  0  0  0  0  0  0  0
    6.5956   -5.7573    2.5965 H   0  0  0  0  0  0  0  0  0  0  0  0
    7.7674   -7.1265    4.2701 H   0  0  0  0  0  0  0  0  0  0  0  0
    7.3385  -11.6647    6.1847 H   0  0  0  0  0  0  0  0  0  0  0  0
    5.6599  -11.3158    5.7325 H   0  0  0  0  0  0  0  0  0  0  0  0
    6.8304  -12.6618    3.9571 H   0  0  0  0  0  0  0  0  0  0  0  0
    8.0433  -11.3839    3.7980 H   0  0  0  0  0  0  0  0  0  0  0  0
    6.3662  -11.0779    3.3341 H   0  0  0  0  0  0  0  0  0  0  0  0
    3.2090   -8.3626    2.8995 H   0  0  0  0  0  0  0  0  0  0  0  0
    3.7646   -4.4436   -3.0243 H   0  0  0  0  0  0  0  0  0  0  0  0
    3.4028   -2.5540   -4.5733 H   0  0  0  0  0  0  0  0  0  0  0  0
    4.3843   -0.1771   -3.9154 H   0  0  0  0  0  0  0  0  0  0  0  0
    3.8093    1.4360   -4.3951 H   0  0  0  0  0  0  0  0  0  0  0  0
    2.7837    1.7179   -2.1169 H   0  0  0  0  0  0  0  0  0  0  0  0
    4.5419    1.5262   -2.0347 H   0  0  0  0  0  0  0  0  0  0  0  0
    3.4812    0.1738   -1.6198 H   0  0  0  0  0  0  0  0  0  0  0  0
    0.9225   -2.7221   -0.3214 H   0  0  0  0  0  0  0  0  0  0  0  0
    2.0305   -6.4606   -2.5235 H   0  0  0  0  0  0  0  0  0  0  0  0
    2.5614   -8.9769   -2.0552 H   0  0  0  0  0  0  0  0  0  0  0  0
  1  2  2  0  0  0  0
  2  3  1  0  0  0  0
  3  4  2  0  0  0  0
  4  5  1  0  0  0  0
  5  6  2  0  0  0  0
  6  7  1  0  0  0  0
  7  8  2  0  0  0  0
  8  9  1  0  0  0  0
  9 10  1  0  0  0  0
 10 11  1  0  0  0  0
  8 12  1  0  0  0  0
 12 13  1  0  0  0  0
 12 14  2  0  0  0  0
  4 15  1  0  0  0  0
 15 16  2  0  0  0  0
 16 17  1  0  0  0  0
 17 18  1  0  0  0  0
 18 19  2  0  0  0  0
 19 20  1  0  0  0  0
 20 21  2  0  0  0  0
 21 22  1  0  0  0  0
 22 23  1  0  0  0  0
 23 24  1  0  0  0  0
 21 25  1  0  0  0  0
 25 26  2  0  0  0  0
 25 27  1  0  0  0  0
 17 28  2  0  0  0  0
 28 29  1  0  0  0  0
 16 30  1  0  0  0  0
 30 31  2  0  0  0  0
 31 32  1  0  0  0  0
 31 33  1  0  0  0  0
 33 34  2  0  0  0  0
 34 35  1  0  0  0  0
 35 36  2  0  0  0  0
 36 37  1  0  0  0  0
 37 38  2  0  0  0  0
 38 39  1  0  0  0  0
 39 40  2  0  0  0  0
 40 41  1  0  0  0  0
 41 42  1  0  0  0  0
 42 43  1  0  0  0  0
 40 44  1  0  0  0  0
 44 45  1  0  0  0  0
 44 46  2  0  0  0  0
 36 47  1  0  0  0  0
 47 48  2  0  0  0  0
 48 49  1  0  0  0  0
 49 50  1  0  0  0  0
 50 51  2  0  0  0  0
 51 52  1  0  0  0  0
 52 53  2  0  0  0  0
 53 54  1  0  0  0  0
 54 55  1  0  0  0  0
 55 56  1  0  0  0  0
 53 57  1  0  0  0  0
 57 58  2  0  0  0  0
 57 59  1  0  0  0  0
 49 60  2  0  0  0  0
 60 61  1  0  0  0  0
 48 62  1  0  0  0  0
 62 63  2  0  0  0  0
 63 64  1  0  0  0  0
 63 65  1  0  0  0  0
 65 66  1  0  0  0  0
 66 67  1  0  0  0  0
 67 68  2  0  0  0  0
 68 69  1  0  0  0  0
 69 70  1  0  0  0  0
 70 71  2  0  0  0  0
 71 72  1  0  0  0  0
 72 73  2  0  0  0  0
 73 74  1  0  0  0  0
 74 75  3  0  0  0  0
 67 76  1  0  0  0  0
 76 77  2  0  0  0  0
 77 78  1  0  0  0  0
 78 79  1  0  0  0  0
 79 80  1  0  0  0  0
 80 81  2  0  0  0  0
 81 82  1  0  0  0  0
 82 83  1  0  0  0  0
 83 84  2  0  0  0  0
 84 85  1  0  0  0  0
 85 86  2  0  0  0  0
 86 87  1  0  0  0  0
 87 88  3  0  0  0  0
 80 89  1  0  0  0  0
 89 90  2  0  0  0  0
 90 91  1  0  0  0  0
 91 92  2  0  0  0  0
 92 93  1  0  0  0  0
 93 94  2  0  0  0  0
 94 95  1  0  0  0  0
 95 96  2  0  0  0  0
 96 97  1  0  0  0  0
 97 98  2  0  0  0  0
 98 99  1  0  0  0  0
 99100  1  0  0  0  0
100101  1  0  0  0  0
 98102  1  0  0  0  0
102103  1  0  0  0  0
102104  2  0  0  0  0
 94105  1  0  0  0  0
105106  2  0  0  0  0
106107  1  0  0  0  0
107108  1  0  0  0  0
108109  2  0  0  0  0
109110  1  0  0  0  0
110111  2  0  0  0  0
111112  1  0  0  0  0
112113  1  0  0  0  0
113114  1  0  0  0  0
111115  1  0  0  0  0
115116  2  0  0  0  0
115117  1  0  0  0  0
107118  2  0  0  0  0
118119  1  0  0  0  0
106120  1  0  0  0  0
120121  2  0  0  0  0
121122  1  0  0  0  0
121123  1  0  0  0  0
123124  2  0  0  0  0
124125  1  0  0  0  0
125126  2  0  0  0  0
126127  1  0  0  0  0
127128  2  0  0  0  0
128129  1  0  0  0  0
129130  2  0  0  0  0
130131  1  0  0  0  0
131132  1  0  0  0  0
132133  1  0  0  0  0
130134  1  0  0  0  0
134135  1  0  0  0  0
134136  2  0  0  0  0
126137  1  0  0  0  0
137138  2  0  0  0  0
138139  1  0  0  0  0
139140  1  0  0  0  0
140141  2  0  0  0  0
141142  1  0  0  0  0
142143  2  0  0  0  0
143144  1  0  0  0  0
144145  1  0  0  0  0
145146  1  0  0  0  0
143147  1  0  0  0  0
147148  2  0  0  0  0
147149  1  0  0  0  0
139150  2  0  0  0  0
150151  1  0  0  0  0
138152  1  0  0  0  0
152153  2  0  0  0  0
153154  1  0  0  0  0
 29  1  1  0  0  0  0
 61 33  1  0  0  0  0
 69 65  2  0  0  0  0
 82 78  2  0  0  0  0
119 91  1  0  0  0  0
151123  1  0  0  0  0
 28  3  1  0  0  0  0
 60 35  1  0  0  0  0
 73 68  1  0  0  0  0
 86 81  1  0  0  0  0
118 93  1  0  0  0  0
150125  1  0  0  0  0
 14  5  1  0  0  0  0
 32 15  1  0  0  0  0
 46 37  1  0  0  0  0
 64 47  1  0  0  0  0
104 95  1  0  0  0  0
122105  1  0  0  0  0
136127  1  0  0  0  0
154137  1  0  0  0  0
 26 18  1  0  0  0  0
 58 50  1  0  0  0  0
116108  1  0  0  0  0
148140  1  0  0  0  0
  1155  1  0  0  0  0
  2156  1  0  0  0  0
  6157  1  0  0  0  0
  7158  1  0  0  0  0
 10159  1  0  0  0  0
 10160  1  0  0  0  0
 11161  1  0  0  0  0
 11162  1  0  0  0  0
 11163  1  0  0  0  0
 14164  1  0  0  0  0
 19165  1  0  0  0  0
 20166  1  0  0  0  0
 23167  1  0  0  0  0
 23168  1  0  0  0  0
 24169  1  0  0  0  0
 24170  1  0  0  0  0
 24171  1  0  0  0  0
 26172  1  0  0  0  0
 30173  1  0  0  0  0
 34174  1  0  0  0  0
 38175  1  0  0  0  0
 39176  1  0  0  0  0
 42177  1  0  0  0  0
 42178  1  0  0  0  0
 43179  1  0  0  0  0
 43180  1  0  0  0  0
 43181  1  0  0  0  0
 46182  1  0  0  0  0
 51183  1  0  0  0  0
 52184  1  0  0  0  0
 55185  1  0  0  0  0
 55186  1  0  0  0  0
 56187  1  0  0  0  0
 56188  1  0  0  0  0
 56189  1  0  0  0  0
 58190  1  0  0  0  0
 62191  1  0  0  0  0
 71192  1  0  0  0  0
 76193  1  0  0  0  0
 77194  1  0  0  0  0
 84195  1  0  0  0  0
 89196  1  0  0  0  0
 90197  1  0  0  0  0
 92198  1  0  0  0  0
 96199  1  0  0  0  0
 97200  1  0  0  0  0
100201  1  0  0  0  0
100202  1  0  0  0  0
101203  1  0  0  0  0
101204  1  0  0  0  0
101205  1  0  0  0  0
104206  1  0  0  0  0
109207  1  0  0  0  0
110208  1  0  0  0  0
113209  1  0  0  0  0
113210  1  0  0  0  0
114211  1  0  0  0  0
114212  1  0  0  0  0
114213  1  0  0  0  0
116214  1  0  0  0  0
120215  1  0  0  0  0
124216  1  0  0  0  0
128217  1  0  0  0  0
129218  1  0  0  0  0
132219  1  0  0  0  0
132220  1  0  0  0  0
133221  1  0  0  0  0
133222  1  0  0  0  0
133223  1  0  0  0  0
136224  1  0  0  0  0
141225  1  0  0  0  0
142226  1  0  0  0  0
145227  1  0  0  0  0
145228  1  0  0  0  0
146229  1  0  0  0  0
146230  1  0  0  0  0
146231  1  0  0  0  0
148232  1  0  0  0  0
152233  1  0  0  0  0
153234  1  0  0  0  0
M  END
