176

C         -8.32510       -4.87360       -4.57640
C         -7.21030       -4.41630       -5.18090
C         -6.16210       -4.12470       -4.25950
C         -4.86490       -3.66490       -4.53420
C         -4.44910       -3.32060       -5.88440
S         -3.02180       -4.00360       -6.60070
C         -3.23040       -3.09830       -8.06130
C         -2.29280       -3.26160       -9.20650
C         -2.62200       -4.52140      -10.01030
C         -4.34700       -2.32020       -7.98320
Cl        -4.87240       -1.26600       -9.23240
C         -5.03970       -2.44080       -6.74860
Cl        -6.42270       -1.49810       -6.36200
C         -4.00340       -3.52170       -3.45560
C         -4.39290       -3.78340       -2.12040
C         -5.68570       -4.25670       -1.84500
C         -6.08530       -4.58890       -0.48900
S         -7.55510       -3.97110        0.20260
C         -7.27890       -4.77820        1.70790
C         -8.27190       -4.70120        2.81440
C         -9.42270       -5.68270        2.58040
C         -6.11710       -5.48910        1.65770
C         -5.43460       -5.38190        0.41690
Cl        -3.98730       -6.24690        0.08940
Cl        -5.50950       -6.42720        2.96000
C         -6.54640       -4.40200       -2.92690
S         -8.18360       -4.99110       -2.85600
C         -3.36570       -3.45610       -1.20070
C         -2.23750       -2.98180       -1.79490
S         -2.36740       -2.93260       -3.53640
C         -1.02750       -2.58890       -1.14790
C         -0.06870       -1.72200       -1.57180
C          1.01700       -1.58510       -0.66640
C          2.17540       -0.78090       -0.78850
C          2.40400       -0.02000       -2.00560
S          2.12190       -0.76680       -3.55770
C          2.50380        0.67260       -4.43000
C          2.46990        0.71890       -5.91690
C          3.85790        0.45780       -6.50680
C          2.85670        1.66050       -3.56220
Cl         3.27760        3.25070       -4.04480
C          2.81690        1.27270       -2.19620
Cl         3.20980        2.39750       -0.97170
C          3.04800       -0.78700        0.29270
C          2.84090       -1.57710        1.45290
C          1.76230       -2.47280        1.51280
C          1.66880       -3.49420        2.53820
S          0.15820       -3.91540        3.29730
C          0.87210       -5.19700        4.21900
C          0.03900       -6.04710        5.11260
C         -0.93390       -6.90620        4.30230
C          2.19940       -5.29370        3.93110
C          2.65250       -4.34020        2.97900
Cl         4.26130       -4.36300        2.38090
Cl         3.25090       -6.45650        4.63020
C          0.83870       -2.39840        0.47510
S         -0.64370       -3.30300        0.40190
C          3.82960       -1.36710        2.44240
C          4.82430       -0.52720        2.04460
S          4.56470        0.07460        0.41760
N          5.88750       -0.07180        2.75370
C          7.21640        0.09750        2.15210
N          8.11500        0.38840        3.23300
C          7.54460       -0.22570        4.42720
C          6.00860       -0.25790        4.17520
N          5.49160        0.84170        4.99390
C          6.65400        1.54130        5.58770
N          7.74900        0.59700        5.59140
N          4.49470        1.61860        4.37980
C          4.93070        2.66620        3.46910
N          5.21710        3.81750        4.32570
C          4.20200        3.81110        5.35060
C          3.68550        2.33680        5.36000
N          2.31230        2.50510        4.89940
C          1.90100        3.82510        5.36160
N          3.03780        4.66200        5.07060
N          1.35230        1.51580        5.04730
C          1.05890        0.97720        6.37030
N          1.41880       -0.43260        6.30520
C          1.14650       -0.83340        4.94940
C          1.52740        0.39950        4.12630
N          0.59210        0.37600        3.03370
C         -0.54350       -0.47170        3.33300
N         -0.27480       -0.99010        4.65810
C          0.56230        1.31030        2.04940
C         -0.06420        1.22630        0.84090
C          0.10170        2.37970        0.03050
C         -0.34270        2.61260       -1.28260
C         -1.19730        1.69430       -2.01480
S         -0.86820        1.34820       -3.69040
C         -2.34100        0.46190       -3.89210
C         -2.75430       -0.03890       -5.23250
C         -1.56880       -0.50030       -6.07160
C         -3.01570        0.40630       -2.70990
Cl        -4.53590       -0.37320       -2.51220
C         -2.37140        1.09640       -1.64600
Cl        -3.09270        1.23560       -0.09610
C          0.05880        3.80820       -1.88430
C          0.80210        4.80030       -1.21290
C          1.19570        4.59160        0.11930
C          1.88700        5.64440        0.84590
S          3.43550        5.41460        1.59960
C          3.51540        7.06410        2.13500
C          4.67320        7.58900        2.91340
C          4.32120        7.79950        4.38900
C          2.39390        7.73420        1.74920
C          1.47260        6.93500        1.02060
Cl        -0.04020        7.53570        0.47580
Cl         2.11060        9.39220        2.08230
C          0.87860        3.36850        0.68680
S          1.38530        2.83960        2.27050
C          1.08660        5.91910       -2.04960
C          0.55860        5.79510       -3.28240
S         -0.30970        4.31630       -3.51110
H         -9.25110       -5.16260       -5.03360
H         -7.11430       -4.29550       -6.24410
H         -2.37190       -2.38430       -9.85110
H         -1.27050       -3.32960       -8.82960
H         -2.54490       -5.40210       -9.37730
H         -3.63320       -4.46370      -10.40510
H         -1.92950       -4.62600      -10.84100
H         -7.77000       -4.93930        3.75400
H         -8.66880       -3.68640        2.87610
H         -9.92670       -5.45490        1.64420
H         -9.04560       -6.70130        2.53300
H        -10.14260       -5.61480        3.39150
H         -3.46890       -3.52660       -0.13340
H         -0.16210       -1.18400       -2.49630
H          2.12250        1.70680       -6.22600
H          1.76870       -0.03190       -6.28340
H          3.81640        0.50050       -7.59180
H          4.56300        1.20610       -6.15480
H          4.21560       -0.52480       -6.20880
H          0.70140       -6.68610        5.69870
H         -0.52740       -5.41260        5.79870
H         -0.38840       -7.55840        3.62470
H         -1.59720       -6.27470        3.71580
H         -1.53440       -7.51980        4.96820
H          3.78880       -1.82010        3.41420
H          7.51940       -0.84860        1.67520
H          7.20960        0.88420        1.39190
H          8.20880        1.38530        3.39520
H          7.97680       -1.22290        4.55210
H          5.53610       -1.19090        4.50300
H          6.93180        2.43050        5.00720
H          6.40760        1.86180        6.60210
H          7.73520        0.02800        6.42880
H          5.81930        2.38380        2.90570
H          4.10330        2.84240        2.76610
H          5.23320        4.68970        3.81070
H          4.63590        4.11860        6.31000
H          3.76570        1.82910        6.32900
H          1.00470        4.14780        4.83280
H          1.71160        3.84640        6.44880
H          3.02550        4.86170        4.07200
H          1.63900        1.47860        7.15160
H         -0.01520        1.12990        6.56770
H          0.90330       -0.98850        6.97770
H          1.74360       -1.72330        4.70430
H          2.55300        0.39400        3.74130
H         -1.47770        0.10970        3.34050
H         -0.63660       -1.26580        2.57140
H         -0.59400       -1.94560        4.76030
H         -0.59560        0.34980        0.52350
H         -3.46890       -0.85160       -5.09710
H         -3.27190        0.76940       -5.75950
H         -0.86120        0.31660       -6.19430
H         -1.90810       -0.81900       -7.05340
H         -1.06200       -1.33240       -5.58900
H          5.51110        6.89490        2.82480
H          4.97660        8.54580        2.48030
H          3.99820        6.86970        4.85100
H          5.19070        8.17500        4.92210
H          3.51910        8.52620        4.48040
H          1.67770        6.75970       -1.73510
H          0.62610        6.48060       -4.10410
