89

C          2.84750        3.83690       14.17820
S          2.12030        5.23090       13.47510
C          1.62650        4.33950       12.04680
C          2.03070        3.02700       12.15810
C          2.72410        2.75170       13.37320
O          3.18720        1.50110       13.63660
S          1.75710        1.76460       10.97170
C          0.91330        4.96060       10.98000
S          0.45560        4.03420        9.57140
C         -0.31240        5.40980        8.83300
C         -0.20600        6.52190        9.63920
C          0.48250        6.26830       10.85160
O          0.66540        7.28480       11.73170
S         -0.75140        8.13440        9.22280
C         -0.91960        5.26950        7.55390
S         -0.34610        4.06670        6.42980
C         -1.51110        4.52920        5.22220
C         -2.31250        5.54270        5.70950
C         -1.98620        5.96390        7.01850
O         -2.68450        6.88650        7.70560
S         -3.68260        6.30130        4.87070
C         -1.53980        3.86090        3.96780
S         -0.64610        2.35020        3.79620
C         -1.14790        2.22780        2.15210
C         -1.03450        1.40780        1.02870
C         -1.78400        2.01910        0.00220
N         -2.32780        3.19100        0.46060
C         -3.23300        4.05200       -0.25300
C         -4.68850        3.63890       -0.03980
C         -1.96150        3.31750        1.77630
C         -2.18050        4.23720        2.80450
C         -1.77180        1.30570       -1.20060
C         -1.01460        0.15650       -1.10300
S         -0.30460       -0.05940        0.49150
C         -0.77120       -0.80700       -2.12070
S          0.33530       -2.14040       -1.81580
C          0.08040       -2.73450       -3.41390
C          0.46910       -3.75990       -4.27800
C         -0.21580       -3.54890       -5.49140
N         -1.01890       -2.44210       -5.38390
C         -1.79220       -1.84650       -6.44020
C         -0.96440       -0.85260       -7.25390
C         -0.82880       -1.92650       -4.12690
C         -1.30560       -0.83680       -3.39240
C          0.07890       -4.49940       -6.47450
C          0.98610       -5.43430       -6.02240
S          1.48630       -5.15010       -4.36020
C          1.52380       -6.53730       -6.74420
S          2.76630       -7.54070       -6.00630
C          2.83590       -8.51940       -7.42360
C          3.49010       -9.63360       -7.96010
C          2.96390       -9.82990       -9.24850
N          2.02800       -8.86530       -9.52070
C          1.19140       -8.79740      -10.68870
C         -0.07240       -9.64110      -10.52590
C          1.93120       -8.07280       -8.40550
C          1.19100       -6.94960       -8.01630
C          3.53460      -10.92920       -9.91990
C          4.46990      -11.54020       -9.14490
S          4.69360      -10.81280       -7.58520
H          3.31710        3.91360       15.13810
H          3.63410        1.49080       14.48970
H          2.37320        0.84220       11.71240
H          1.15470        6.98760       12.50600
H         -0.19530        8.67790       10.30500
H         -3.37520        7.25100        7.13030
H         -4.36590        5.17440        4.66240
H         -2.98100        4.00680       -1.31580
H         -3.07930        5.07660        0.09690
H         -4.84620        2.62110       -0.38920
H         -5.35090        4.30490       -0.58580
H         -4.94040        3.68360        1.01710
H         -2.74150        5.14730        2.70330
H         -2.27900        1.60290       -2.09950
H         -2.16020       -2.64710       -7.08790
H         -2.65190       -1.34090       -5.99190
H         -1.56920       -0.42070       -8.04670
H         -0.10760       -1.35350       -7.69820
H         -0.60160       -0.05290       -6.61270
H         -2.00300       -0.10510       -3.75590
H         -0.33280       -4.50910       -7.46660
H          0.92470       -7.75050      -10.85780
H          1.77010       -9.15070      -11.54680
H          0.19070      -10.68350      -10.36270
H         -0.68860       -9.57010      -11.41810
H         -0.64840       -9.29320       -9.67170
H          0.44730       -6.46210       -8.61890
H          3.27500      -11.25530      -10.91080
H          5.06210      -12.39840       -9.39290
