100

C         12.68610       12.33420        1.72390
S         12.25340       10.76750        1.16190
C         10.74560       10.80320        2.03130
C         10.61310       12.00290        2.69270
C         11.72650       12.87330        2.52550
O         11.82020       14.10070        3.08290
S          9.21250       12.52900        3.64380
C          9.85040        9.69290        1.97460
S          9.92250        8.60790        0.58770
C          8.64580        7.65840        1.25210
C          7.85990        6.53600        0.98580
C          6.97120        6.39680        2.07080
N          7.20700        7.38210        2.99270
C          6.44440        7.62380        4.18920
C          5.22010        8.49430        3.91120
C          8.21110        8.16950        2.49230
C          8.89510        9.32190        2.89500
C          6.08830        5.31940        1.93830
C          6.29470        4.63450        0.76260
S          7.60500        5.31070       -0.20330
C          5.55880        3.52200        0.27650
S          4.17890        2.93170        1.20170
C          3.86580        1.74490       -0.00910
C          2.97030        0.72660       -0.33320
C          3.38660        0.20020       -1.57330
N          4.49540        0.87700       -2.01320
C          5.27070        0.57490       -3.18700
C          6.35950       -0.45560       -2.89210
C          4.80280        1.81380       -1.06020
C          5.75820        2.82200       -0.89210
C          2.55850       -0.82110       -2.05250
C          1.51160       -1.07400       -1.19080
S          1.54720       -0.05570        0.24370
C          0.44110       -1.99470       -1.36120
S         -0.81010       -2.09490       -0.12770
C         -1.66010       -3.26200       -1.06820
C         -2.82810       -4.02360       -1.07080
C         -2.83310       -4.75780       -2.27390
N         -1.71200       -4.45540       -3.00310
C         -1.31790       -5.06480       -4.24530
C         -0.50130       -6.33550       -4.01530
C         -0.98310       -3.55350       -2.27050
C          0.20690       -2.83520       -2.42960
C         -3.97030       -5.55710       -2.43690
C         -4.83350       -5.43680       -1.37130
S         -4.24150       -4.33180       -0.13160
C         -6.09870       -6.05760       -1.20110
S         -6.72850       -7.12770       -2.45280
C         -8.17480       -7.35950       -1.53950
C         -9.40510       -8.01670       -1.58250
C        -10.08660       -7.67670       -0.39570
N         -9.31590       -6.82630        0.35310
C         -9.62540       -6.33110        1.66820
C         -9.13600       -7.28440        2.75690
C         -8.14260       -6.63880       -0.32810
C         -6.96540       -5.90610       -0.14260
C        -11.35810       -8.25240       -0.29150
C        -11.65080       -9.02630       -1.39040
S        -10.35180       -9.06160       -2.57710
C        -12.85310       -9.75140       -1.63610
S        -13.06320      -10.69250       -3.08630
C        -14.64540      -11.16930       -2.61560
C        -14.99370      -10.63700       -1.41290
C        -13.97900       -9.82490       -0.84160
O        -14.09770       -9.18800        0.35160
S        -16.53940      -10.88670       -0.58420
H         13.61420       12.77790        1.43120
H         11.00000       14.29010        3.56070
H          8.29380       12.01800        2.82590
H          7.09680        8.11280        4.91750
H          6.13180        6.65810        4.59570
H          4.66100        8.65600        4.82850
H          4.57140        8.00930        3.18570
H          5.52510        9.45910        3.51230
H          8.73860        9.83410        3.82650
H          5.32690        5.04020        2.64380
H          4.59240        0.19600       -3.95640
H          5.72140        1.50360       -3.54770
H          6.92890       -0.66700       -3.79300
H          5.91480       -1.38040       -2.53190
H          7.03690       -0.07800       -2.12980
H          6.55740        3.05210       -1.57350
H          2.70020       -1.34820       -2.97770
H         -0.73020       -4.33720       -4.81180
H         -2.22250       -5.29870       -4.81320
H          0.39860       -6.10710       -3.44870
H         -0.21550       -6.77420       -4.96730
H         -1.08680       -7.06150       -3.45630
H          0.86470       -2.90930       -3.27570
H         -4.17840       -6.19170       -3.27930
H        -10.70910       -6.20560        1.73850
H         -9.15180       -5.35250        1.78540
H         -9.37950       -6.88740        3.73850
H         -8.05820       -7.41240        2.68780
H         -9.60860       -8.25730        2.64420
H         -6.73720       -5.28780        0.70670
H        -12.04170       -8.12600        0.52570
H        -15.22300      -11.81040       -3.25030
H        -14.96900       -9.38020        0.72260
H        -17.06040      -11.66940       -1.52000
