
  xtb     02282221573D
 energy: -164.744975479606 gnorm: 0.000241190398 xtb: 6.4.1 (unknown)
 89100  0     0  0            999 V2000
    7.3389   10.1476   -6.6910 C   0  0  0  0  0  0  0  0  0  0  0  0
    6.0559    9.0282   -7.0285 S   0  0  0  0  0  0  0  0  0  0  0  0
    6.0007    8.5858   -5.3607 C   0  0  0  0  0  0  0  0  0  0  0  0
    5.3293    7.7472   -4.4657 C   0  0  0  0  0  0  0  0  0  0  0  0
    5.8946    7.9761   -3.1969 C   0  0  0  0  0  0  0  0  0  0  0  0
    6.8936    8.9087   -3.2964 N   0  0  0  0  0  0  0  0  0  0  0  0
    7.6419    9.4715   -2.2037 C   0  0  0  0  0  0  0  0  0  0  0  0
    6.9375   10.6890   -1.6071 C   0  0  0  0  0  0  0  0  0  0  0  0
    6.9525    9.2973   -4.6092 C   0  0  0  0  0  0  0  0  0  0  0  0
    7.7157   10.1921   -5.3855 C   0  0  0  0  0  0  0  0  0  0  0  0
    5.3242    7.1997   -2.1799 C   0  0  0  0  0  0  0  0  0  0  0  0
    4.3309    6.3805   -2.6629 C   0  0  0  0  0  0  0  0  0  0  0  0
    4.0805    6.5588   -4.3990 S   0  0  0  0  0  0  0  0  0  0  0  0
    3.5431    5.4514   -1.9321 C   0  0  0  0  0  0  0  0  0  0  0  0
    3.8080    5.2632   -0.1991 S   0  0  0  0  0  0  0  0  0  0  0  0
    2.5828    4.0496   -0.1366 C   0  0  0  0  0  0  0  0  0  0  0  0
    1.9464    3.1783    0.7461 C   0  0  0  0  0  0  0  0  0  0  0  0
    1.0061    2.4460   -0.0041 C   0  0  0  0  0  0  0  0  0  0  0  0
    1.0383    2.8618   -1.3085 N   0  0  0  0  0  0  0  0  0  0  0  0
    0.2820    2.3023   -2.3978 C   0  0  0  0  0  0  0  0  0  0  0  0
    0.9916    1.0996   -3.0168 C   0  0  0  0  0  0  0  0  0  0  0  0
    2.0091    3.8245   -1.4042 C   0  0  0  0  0  0  0  0  0  0  0  0
    2.5577    4.6222   -2.4154 C   0  0  0  0  0  0  0  0  0  0  0  0
    0.2881    1.5096    0.7496 C   0  0  0  0  0  0  0  0  0  0  0  0
    0.6613    1.5162    2.0737 C   0  0  0  0  0  0  0  0  0  0  0  0
    1.9331    2.7014    2.4036 S   0  0  0  0  0  0  0  0  0  0  0  0
    0.1342    0.6740    3.0948 C   0  0  0  0  0  0  0  0  0  0  0  0
   -0.9655   -0.6128    2.6546 S   0  0  0  0  0  0  0  0  0  0  0  0
   -1.1336   -1.1246    4.3127 C   0  0  0  0  0  0  0  0  0  0  0  0
   -0.3720   -0.3357    5.1451 C   0  0  0  0  0  0  0  0  0  0  0  0
    0.3414    0.6812    4.4580 C   0  0  0  0  0  0  0  0  0  0  0  0
    1.1353    1.5296    5.1574 O   0  0  0  0  0  0  0  0  0  0  0  0
   -0.1719   -0.5748    6.8682 S   0  0  0  0  0  0  0  0  0  0  0  0
   -1.9614   -2.2377    4.6327 C   0  0  0  0  0  0  0  0  0  0  0  0
   -2.2027   -3.5315    3.4929 S   0  0  0  0  0  0  0  0  0  0  0  0
   -3.2125   -4.4239    4.6077 C   0  0  0  0  0  0  0  0  0  0  0  0
   -3.3491   -3.7240    5.7858 C   0  0  0  0  0  0  0  0  0  0  0  0
   -2.6544   -2.4870    5.7980 C   0  0  0  0  0  0  0  0  0  0  0  0
   -2.7105   -1.6064    6.8144 O   0  0  0  0  0  0  0  0  0  0  0  0
   -4.3696   -4.1156    7.1722 S   0  0  0  0  0  0  0  0  0  0  0  0
   -3.7402   -5.6744    4.1618 C   0  0  0  0  0  0  0  0  0  0  0  0
   -3.9984   -5.8919    2.4459 S   0  0  0  0  0  0  0  0  0  0  0  0
   -4.5584   -7.5316    2.6476 C   0  0  0  0  0  0  0  0  0  0  0  0
   -4.5107   -7.8738    3.9813 C   0  0  0  0  0  0  0  0  0  0  0  0
   -4.0539   -6.8376    4.8302 C   0  0  0  0  0  0  0  0  0  0  0  0
   -3.8957   -7.0223    6.1681 O   0  0  0  0  0  0  0  0  0  0  0  0
   -4.9889   -9.4248    4.7003 S   0  0  0  0  0  0  0  0  0  0  0  0
   -4.9614   -8.2783    1.5102 C   0  0  0  0  0  0  0  0  0  0  0  0
   -5.5657   -9.9304    1.6466 S   0  0  0  0  0  0  0  0  0  0  0  0
   -5.8040   -9.9985   -0.0562 C   0  0  0  0  0  0  0  0  0  0  0  0
   -6.2505  -10.8536   -1.0673 C   0  0  0  0  0  0  0  0  0  0  0  0
   -6.1374  -10.1408   -2.2748 C   0  0  0  0  0  0  0  0  0  0  0  0
   -5.6558   -8.8818   -2.0301 N   0  0  0  0  0  0  0  0  0  0  0  0
   -5.3161   -7.8883   -3.0146 C   0  0  0  0  0  0  0  0  0  0  0  0
   -3.8738   -8.0421   -3.4941 C   0  0  0  0  0  0  0  0  0  0  0  0
   -5.4326   -8.7911   -0.6813 C   0  0  0  0  0  0  0  0  0  0  0  0
   -4.9559   -7.8245    0.2081 C   0  0  0  0  0  0  0  0  0  0  0  0
   -6.5548  -10.8841   -3.3967 C   0  0  0  0  0  0  0  0  0  0  0  0
   -6.9699  -12.1260   -3.0302 C   0  0  0  0  0  0  0  0  0  0  0  0
   -6.8742  -12.4421   -1.3274 S   0  0  0  0  0  0  0  0  0  0  0  0
    7.7410   10.7163   -7.5055 H   0  0  0  0  0  0  0  0  0  0  0  0
    7.7649    8.6983   -1.4404 H   0  0  0  0  0  0  0  0  0  0  0  0
    8.6310    9.7540   -2.5750 H   0  0  0  0  0  0  0  0  0  0  0  0
    6.8111   11.4595   -2.3644 H   0  0  0  0  0  0  0  0  0  0  0  0
    5.9560   10.4089   -1.2319 H   0  0  0  0  0  0  0  0  0  0  0  0
    7.5233   11.0954   -0.7873 H   0  0  0  0  0  0  0  0  0  0  0  0
    8.4936   10.8320   -5.0103 H   0  0  0  0  0  0  0  0  0  0  0  0
    5.6053    7.2186   -1.1423 H   0  0  0  0  0  0  0  0  0  0  0  0
   -0.6981    2.0038   -2.0154 H   0  0  0  0  0  0  0  0  0  0  0  0
    0.1404    3.0833   -3.1495 H   0  0  0  0  0  0  0  0  0  0  0  0
    0.4002    0.6985   -3.8352 H   0  0  0  0  0  0  0  0  0  0  0  0
    1.9662    1.3938   -3.3993 H   0  0  0  0  0  0  0  0  0  0  0  0
    1.1320    0.3208   -2.2708 H   0  0  0  0  0  0  0  0  0  0  0  0
    2.2716    4.6082   -3.4515 H   0  0  0  0  0  0  0  0  0  0  0  0
   -0.4704    0.8488    0.3716 H   0  0  0  0  0  0  0  0  0  0  0  0
    1.5393    2.1786    4.5700 H   0  0  0  0  0  0  0  0  0  0  0  0
    0.7653    0.3686    6.9598 H   0  0  0  0  0  0  0  0  0  0  0  0
   -3.1636   -2.0131    7.5675 H   0  0  0  0  0  0  0  0  0  0  0  0
   -4.3209   -5.4320    7.0194 H   0  0  0  0  0  0  0  0  0  0  0  0
   -4.1287   -7.9453    6.3677 H   0  0  0  0  0  0  0  0  0  0  0  0
   -4.2058  -10.1990    3.9525 H   0  0  0  0  0  0  0  0  0  0  0  0
   -6.0058   -7.9919   -3.8566 H   0  0  0  0  0  0  0  0  0  0  0  0
   -5.4592   -6.9010   -2.5668 H   0  0  0  0  0  0  0  0  0  0  0  0
   -3.6451   -7.2840   -4.2381 H   0  0  0  0  0  0  0  0  0  0  0  0
   -3.7265   -9.0244   -3.9371 H   0  0  0  0  0  0  0  0  0  0  0  0
   -3.1859   -7.9321   -2.6591 H   0  0  0  0  0  0  0  0  0  0  0  0
   -4.6162   -6.8389   -0.0543 H   0  0  0  0  0  0  0  0  0  0  0  0
   -6.5498  -10.5320   -4.4121 H   0  0  0  0  0  0  0  0  0  0  0  0
   -7.3378  -12.9042   -3.6689 H   0  0  0  0  0  0  0  0  0  0  0  0
  1  2  1  0  0  0  0
  2  3  1  0  0  0  0
  3  4  1  0  0  0  0
  4  5  2  0  0  0  0
  5  6  1  0  0  0  0
  6  7  1  0  0  0  0
  7  8  1  0  0  0  0
  6  9  1  0  0  0  0
  9 10  1  0  0  0  0
  5 11  1  0  0  0  0
 11 12  2  0  0  0  0
 12 13  1  0  0  0  0
 12 14  1  0  0  0  0
 14 15  1  0  0  0  0
 15 16  1  0  0  0  0
 16 17  1  0  0  0  0
 17 18  2  0  0  0  0
 18 19  1  0  0  0  0
 19 20  1  0  0  0  0
 20 21  1  0  0  0  0
 19 22  1  0  0  0  0
 22 23  1  0  0  0  0
 18 24  1  0  0  0  0
 24 25  2  0  0  0  0
 25 26  1  0  0  0  0
 25 27  1  0  0  0  0
 27 28  1  0  0  0  0
 28 29  1  0  0  0  0
 29 30  2  0  0  0  0
 30 31  1  0  0  0  0
 31 32  1  0  0  0  0
 30 33  1  0  0  0  0
 29 34  1  0  0  0  0
 34 35  1  0  0  0  0
 35 36  1  0  0  0  0
 36 37  2  0  0  0  0
 37 38  1  0  0  0  0
 38 39  1  0  0  0  0
 37 40  1  0  0  0  0
 36 41  1  0  0  0  0
 41 42  1  0  0  0  0
 42 43  1  0  0  0  0
 43 44  2  0  0  0  0
 44 45  1  0  0  0  0
 45 46  1  0  0  0  0
 44 47  1  0  0  0  0
 43 48  1  0  0  0  0
 48 49  1  0  0  0  0
 49 50  1  0  0  0  0
 50 51  1  0  0  0  0
 51 52  2  0  0  0  0
 52 53  1  0  0  0  0
 53 54  1  0  0  0  0
 54 55  1  0  0  0  0
 53 56  1  0  0  0  0
 56 57  1  0  0  0  0
 52 58  1  0  0  0  0
 58 59  2  0  0  0  0
 59 60  1  0  0  0  0
 10  1  2  0  0  0  0
 23 14  2  0  0  0  0
 31 27  2  0  0  0  0
 38 34  2  0  0  0  0
 45 41  2  0  0  0  0
 57 48  2  0  0  0  0
  9  3  2  0  0  0  0
 22 16  2  0  0  0  0
 56 50  2  0  0  0  0
 13  4  1  0  0  0  0
 26 17  1  0  0  0  0
 60 51  1  0  0  0  0
  1 61  1  0  0  0  0
  7 62  1  0  0  0  0
  7 63  1  0  0  0  0
  8 64  1  0  0  0  0
  8 65  1  0  0  0  0
  8 66  1  0  0  0  0
 10 67  1  0  0  0  0
 11 68  1  0  0  0  0
 20 69  1  0  0  0  0
 20 70  1  0  0  0  0
 21 71  1  0  0  0  0
 21 72  1  0  0  0  0
 21 73  1  0  0  0  0
 23 74  1  0  0  0  0
 24 75  1  0  0  0  0
 32 76  1  0  0  0  0
 33 77  1  0  0  0  0
 39 78  1  0  0  0  0
 40 79  1  0  0  0  0
 46 80  1  0  0  0  0
 47 81  1  0  0  0  0
 54 82  1  0  0  0  0
 54 83  1  0  0  0  0
 55 84  1  0  0  0  0
 55 85  1  0  0  0  0
 55 86  1  0  0  0  0
 57 87  1  0  0  0  0
 58 88  1  0  0  0  0
 59 89  1  0  0  0  0
M  END
