59

C          0.24510       10.09320       -0.14370
S          0.00840        8.54670        0.56170
C          0.19350        7.75350       -0.97650
C          0.46800        8.67850       -1.95900
C          0.49190       10.01920       -1.48230
O          0.73600       11.10000       -2.25520
S          0.84510        8.36300       -3.66090
C          0.05380        6.32520       -1.05820
C         -0.36480        5.63560       -2.19350
N         -0.48540        4.31990       -2.30650
C         -0.22450        3.51850       -1.29040
C          0.16410        4.08220       -0.04200
C          0.30330        5.50410        0.07100
N          0.67910        5.86920        1.29500
S          0.82880        4.55490        2.20740
N          0.43470        3.45610        1.09770
C         -0.33860        2.10510       -1.44530
S         -0.03080        1.03380       -0.11550
C         -0.37810       -0.36710       -1.08530
C         -0.66750        0.00560       -2.38580
C         -0.65980        1.40170       -2.59860
O         -0.91370        1.98220       -3.77430
S         -1.00930       -1.05700       -3.77260
C         -0.33650       -1.66300       -0.47450
C         -0.86830       -2.82770       -1.02070
N         -0.85150       -4.02880       -0.45320
C         -0.30480       -4.22590        0.74640
C          0.26140       -3.11970        1.43340
C          0.23930       -1.82770        0.81480
N          0.80040       -0.90220        1.58660
S          1.29790       -1.59330        2.95220
N          0.83260       -3.09820        2.63220
C         -0.32560       -5.53750        1.29080
S          0.32590       -5.95350        2.84250
C         -0.14520       -7.62160        2.63450
C         -0.77180       -7.82190        1.41370
C         -0.87660       -6.63890        0.64960
O         -1.44970       -6.60220       -0.55940
S         -1.41010       -9.32190        0.76780
C          0.14060       -8.55350        3.68510
C         -0.17880       -9.90800        3.67520
N          0.08190      -10.77120        4.65850
C          0.68570      -10.38830        5.75050
C          1.07990       -9.04810        5.91850
C          0.79980       -8.11480        4.86360
N          1.22390       -6.88830        5.15660
S          1.90560       -6.91250        6.61320
N          1.70110       -8.46670        6.94730
H          0.20780       10.97830        0.45640
H          0.93360       10.80800       -3.15590
H          1.36810        7.15420       -3.47690
H         -0.66130        6.17490       -3.08220
H         -1.08110        1.29430       -4.43940
H          0.07970       -1.81650       -3.64990
H         -1.37650       -2.80910       -1.97310
H         -1.40250       -5.66040       -0.86410
H         -1.82280       -8.74300       -0.36020
H         -0.68090      -10.35260        2.83050
H          0.86850      -11.13190        6.51180
