89

C         11.96220        7.31480       -6.92160
S         10.93770        6.06100       -7.54800
C         10.06740        6.02450       -6.05740
C          9.00360        5.37920       -5.41890
C          8.90540        5.94130       -4.13230
N          9.88090        6.88900       -3.96450
C         10.03170        7.75530       -2.82570
C          9.15020        8.99780       -2.94420
C         10.58140        6.95820       -5.14050
C         11.67030        7.69370       -5.64910
C          7.87350        5.39540       -3.35810
C          7.18360        4.42320       -4.04360
S          7.80610        4.16260       -5.67230
C          6.07900        3.66000       -3.57980
S          5.48430        3.90930       -1.93860
C          4.27290        2.70610       -2.18630
C          3.21830        2.06580       -1.53650
C          2.67360        1.14610       -2.45570
N          3.35410        1.22280       -3.64300
C          3.16970        0.36750       -4.78560
C          4.01630       -0.89990       -4.68030
C          4.34390        2.15740       -3.48280
C          5.36950        2.70100       -4.26510
C          1.59700        0.41350       -1.94310
C          1.31760        0.76180       -0.64120
S          2.38910        2.01960       -0.02440
C          0.31440        0.22550        0.20760
S         -0.79750       -0.99660       -0.40810
C         -1.56810       -1.08590        1.13420
C         -2.58920       -1.75240        1.81230
C         -2.58510       -1.25820        3.13390
N         -1.61470       -0.29970        3.26700
C         -1.23950        0.36410        4.48730
C         -0.20600       -0.44330        5.27070
C         -0.97560       -0.20170        2.05960
C          0.08520        0.53880        1.52830
C         -3.55130       -1.84340        3.95770
C         -4.29850       -2.77530        3.27250
S         -3.81630       -2.94510        1.58810
C         -5.36060       -3.56740        3.78880
S         -6.33440       -4.57310        2.75780
C         -7.31020       -5.13250        4.09520
C         -6.87800       -4.55430        5.26890
C         -5.78440       -3.67030        5.09910
O         -5.20620       -2.99790        6.12240
S         -7.43260       -4.89360        6.91230
C         -8.35320       -6.06690        3.80700
S         -8.14620       -7.13720        2.44480
C         -9.71060       -7.87340        2.67900
C        -10.34310       -7.29940        3.75540
C         -9.58670       -6.27650        4.38190
O        -10.07720       -5.55160        5.42640
S        -11.89320       -7.75580        4.47280
C        -10.10080       -8.92690        1.78830
S         -8.85760       -9.97400        1.15260
C         -9.99620      -10.86350        0.22650
C        -11.25820      -10.38430        0.38640
C        -11.32710       -9.27280        1.26880
O        -12.48580       -8.60010        1.52970
S        -12.71710      -11.01200       -0.39580
H         12.73510        7.70050       -7.55600
H         11.08330        8.04540       -2.75300
H          9.76370        7.19060       -1.92820
H          9.41500        9.56380       -3.83430
H          8.10410        8.70970       -3.01630
H          9.27950        9.63320       -2.07240
H         12.20750        8.45700       -5.11590
H          7.62420        5.68090       -2.35200
H          2.10970        0.10710       -4.84940
H          3.44550        0.93000       -5.68190
H          3.85890       -1.52830       -5.55260
H          5.07130       -0.64310       -4.61840
H          3.74340       -1.46110       -3.78960
H          5.60170        2.42450       -5.27780
H          1.03990       -0.33930       -2.47100
H         -2.14090        0.50440        5.08980
H         -0.83380        1.34660        4.23080
H          0.06080        0.07840        6.18560
H          0.69140       -0.58560        4.67310
H         -0.61010       -1.41950        5.52780
H          0.67390        1.26420        2.06030
H         -3.71570       -1.62080        4.99430
H         -5.67370       -3.22850        6.93910
H         -8.68030       -5.19810        6.58290
H        -10.98730       -5.84340        5.59430
H        -12.47260       -8.11990        3.33660
H         -9.67090      -11.68290       -0.38190
H        -13.19560       -8.97910        0.99330
H        -12.08460      -11.88600       -1.16670
