
  xtb     02282221353D
 energy: -176.846657807290 gnorm: 0.000337457353 xtb: 6.4.1 (unknown)
104115  0     0  0            999 V2000
    4.4599    0.0509    9.3402 C   0  0  0  0  0  0  0  0  0  0  0  0
    5.5888    0.4083    8.6412 C   0  0  0  0  0  0  0  0  0  0  0  0
    6.8222    0.6135    9.1617 N   0  0  0  0  0  0  0  0  0  0  0  0
    7.7764    0.9135    8.3238 C   0  0  0  0  0  0  0  0  0  0  0  0
    9.1335    1.1607    8.8965 C   0  0  0  0  0  0  0  0  0  0  0  0
    7.5511    0.9782    6.9073 C   0  0  0  0  0  0  0  0  0  0  0  0
    8.6743    1.2275    5.9548 C   0  0  0  0  0  0  0  0  0  0  0  0
    6.3644    0.8071    6.3875 N   0  0  0  0  0  0  0  0  0  0  0  0
    5.3511    0.5573    7.2295 C   0  0  0  0  0  0  0  0  0  0  0  0
    4.0125    0.3323    6.8822 C   0  0  0  0  0  0  0  0  0  0  0  0
    3.1061   -0.0981    8.3039 S   0  0  0  0  0  0  0  0  0  0  0  0
    3.3988    0.3977    5.6201 C   0  0  0  0  0  0  0  0  0  0  0  0
    3.8505    1.0418    4.4557 C   0  0  0  0  0  0  0  0  0  0  0  0
    4.9325    1.8256    4.3232 N   0  0  0  0  0  0  0  0  0  0  0  0
    5.1670    2.3320    3.1383 C   0  0  0  0  0  0  0  0  0  0  0  0
    6.3642    3.2165    3.0117 C   0  0  0  0  0  0  0  0  0  0  0  0
    4.3221    2.0713    2.0151 C   0  0  0  0  0  0  0  0  0  0  0  0
    4.6253    2.6138    0.6584 C   0  0  0  0  0  0  0  0  0  0  0  0
    3.2273    1.3587    2.1395 N   0  0  0  0  0  0  0  0  0  0  0  0
    2.9698    0.8524    3.3510 C   0  0  0  0  0  0  0  0  0  0  0  0
    1.8313    0.0920    3.6603 C   0  0  0  0  0  0  0  0  0  0  0  0
    1.8648   -0.3901    5.3242 S   0  0  0  0  0  0  0  0  0  0  0  0
    0.8185   -0.2586    2.7778 C   0  0  0  0  0  0  0  0  0  0  0  0
   -0.3049   -1.0519    3.0699 C   0  0  0  0  0  0  0  0  0  0  0  0
   -0.5924   -1.5931    4.2609 N   0  0  0  0  0  0  0  0  0  0  0  0
   -1.6933   -2.3080    4.3331 C   0  0  0  0  0  0  0  0  0  0  0  0
   -2.0178   -2.9133    5.6580 C   0  0  0  0  0  0  0  0  0  0  0  0
   -2.5433   -2.4997    3.2022 C   0  0  0  0  0  0  0  0  0  0  0  0
   -3.7956   -3.3059    3.2982 C   0  0  0  0  0  0  0  0  0  0  0  0
   -2.2655   -1.9773    2.0281 N   0  0  0  0  0  0  0  0  0  0  0  0
   -1.1463   -1.2494    1.9443 C   0  0  0  0  0  0  0  0  0  0  0  0
   -0.6724   -0.6058    0.7853 C   0  0  0  0  0  0  0  0  0  0  0  0
    0.8139    0.2454    1.1094 S   0  0  0  0  0  0  0  0  0  0  0  0
   -1.2748   -0.6390   -0.4630 C   0  0  0  0  0  0  0  0  0  0  0  0
   -0.8271    0.0198   -1.6237 C   0  0  0  0  0  0  0  0  0  0  0  0
    0.2499    0.8101   -1.7064 N   0  0  0  0  0  0  0  0  0  0  0  0
    0.5014    1.3443   -2.8812 C   0  0  0  0  0  0  0  0  0  0  0  0
    1.6979    2.2320   -2.9735 C   0  0  0  0  0  0  0  0  0  0  0  0
   -0.3270    1.0939   -4.0159 C   0  0  0  0  0  0  0  0  0  0  0  0
   -0.0325    1.7084   -5.3440 C   0  0  0  0  0  0  0  0  0  0  0  0
   -1.3851    0.3170   -3.9455 N   0  0  0  0  0  0  0  0  0  0  0  0
   -1.6519   -0.2286   -2.7523 C   0  0  0  0  0  0  0  0  0  0  0  0
   -2.7326   -1.0821   -2.4637 C   0  0  0  0  0  0  0  0  0  0  0  0
   -2.7235   -1.5543   -0.7861 S   0  0  0  0  0  0  0  0  0  0  0  0
   -3.6916   -1.5273   -3.3633 C   0  0  0  0  0  0  0  0  0  0  0  0
   -4.7597   -2.3923   -3.0672 C   0  0  0  0  0  0  0  0  0  0  0  0
   -5.0245   -2.9159   -1.8646 N   0  0  0  0  0  0  0  0  0  0  0  0
   -6.0682   -3.7098   -1.7828 C   0  0  0  0  0  0  0  0  0  0  0  0
   -6.3638   -4.2958   -0.4424 C   0  0  0  0  0  0  0  0  0  0  0  0
   -6.8835   -4.0017   -2.9196 C   0  0  0  0  0  0  0  0  0  0  0  0
   -8.0666   -4.9051   -2.8091 C   0  0  0  0  0  0  0  0  0  0  0  0
   -6.6328   -3.4949   -4.1047 N   0  0  0  0  0  0  0  0  0  0  0  0
   -5.5680   -2.6828   -4.2000 C   0  0  0  0  0  0  0  0  0  0  0  0
   -5.1195   -2.0429   -5.3642 C   0  0  0  0  0  0  0  0  0  0  0  0
   -3.7019   -1.0831   -5.0470 S   0  0  0  0  0  0  0  0  0  0  0  0
   -5.6812   -2.1259   -6.6405 C   0  0  0  0  0  0  0  0  0  0  0  0
   -5.2031   -1.4931   -7.7919 C   0  0  0  0  0  0  0  0  0  0  0  0
   -4.1241   -0.7007   -7.8396 N   0  0  0  0  0  0  0  0  0  0  0  0
   -3.8169   -0.1932   -9.0080 C   0  0  0  0  0  0  0  0  0  0  0  0
   -2.6156    0.6904   -9.0659 C   0  0  0  0  0  0  0  0  0  0  0  0
   -4.5987   -0.4736  -10.1789 C   0  0  0  0  0  0  0  0  0  0  0  0
   -4.2232    0.1153  -11.4996 C   0  0  0  0  0  0  0  0  0  0  0  0
   -5.6550   -1.2421  -10.1531 N   0  0  0  0  0  0  0  0  0  0  0  0
   -5.9920   -1.7777   -8.9551 C   0  0  0  0  0  0  0  0  0  0  0  0
   -7.0500   -2.6129   -8.6739 C   0  0  0  0  0  0  0  0  0  0  0  0
   -7.0931   -3.0566   -7.0145 S   0  0  0  0  0  0  0  0  0  0  0  0
    4.3599   -0.1169   10.3928 H   0  0  0  0  0  0  0  0  0  0  0  0
    9.4838    2.1561    8.6276 H   0  0  0  0  0  0  0  0  0  0  0  0
    9.8477    0.4355    8.5090 H   0  0  0  0  0  0  0  0  0  0  0  0
    9.0861    1.0744    9.9783 H   0  0  0  0  0  0  0  0  0  0  0  0
    8.2829    1.2040    4.9421 H   0  0  0  0  0  0  0  0  0  0  0  0
    9.1293    2.1987    6.1455 H   0  0  0  0  0  0  0  0  0  0  0  0
    9.4463    0.4668    6.0632 H   0  0  0  0  0  0  0  0  0  0  0  0
    6.8341    3.3102    3.9861 H   0  0  0  0  0  0  0  0  0  0  0  0
    6.0759    4.2024    2.6501 H   0  0  0  0  0  0  0  0  0  0  0  0
    7.0769    2.7936    2.3048 H   0  0  0  0  0  0  0  0  0  0  0  0
    4.6226    3.7029    0.6727 H   0  0  0  0  0  0  0  0  0  0  0  0
    3.8682    2.2609   -0.0361 H   0  0  0  0  0  0  0  0  0  0  0  0
    5.6076    2.2831    0.3247 H   0  0  0  0  0  0  0  0  0  0  0  0
   -1.2340   -2.6581    6.3653 H   0  0  0  0  0  0  0  0  0  0  0  0
   -2.0933   -3.9963    5.5749 H   0  0  0  0  0  0  0  0  0  0  0  0
   -2.9715   -2.5366    6.0253 H   0  0  0  0  0  0  0  0  0  0  0  0
   -3.5688   -4.3329    3.5808 H   0  0  0  0  0  0  0  0  0  0  0  0
   -4.4630   -2.8886    4.0506 H   0  0  0  0  0  0  0  0  0  0  0  0
   -4.2905   -3.2984    2.3313 H   0  0  0  0  0  0  0  0  0  0  0  0
    2.4106    1.8394   -3.6974 H   0  0  0  0  0  0  0  0  0  0  0  0
    1.4082    3.2318   -3.2936 H   0  0  0  0  0  0  0  0  0  0  0  0
    2.1686    2.2885   -1.9963 H   0  0  0  0  0  0  0  0  0  0  0  0
    0.9524    1.4053   -5.6964 H   0  0  0  0  0  0  0  0  0  0  0  0
   -0.7867    1.3836   -6.0548 H   0  0  0  0  0  0  0  0  0  0  0  0
   -0.0462    2.7951   -5.2737 H   0  0  0  0  0  0  0  0  0  0  0  0
   -7.3518   -3.9906   -0.1006 H   0  0  0  0  0  0  0  0  0  0  0  0
   -5.6142   -3.9491    0.2631 H   0  0  0  0  0  0  0  0  0  0  0  0
   -6.3434   -5.3837   -0.4867 H   0  0  0  0  0  0  0  0  0  0  0  0
   -7.7610   -5.8937   -2.4695 H   0  0  0  0  0  0  0  0  0  0  0  0
   -8.5409   -4.9890   -3.7827 H   0  0  0  0  0  0  0  0  0  0  0  0
   -8.7829   -4.5089   -2.0908 H   0  0  0  0  0  0  0  0  0  0  0  0
   -2.8881    1.6866   -9.4118 H   0  0  0  0  0  0  0  0  0  0  0  0
   -1.8739    0.2856   -9.7532 H   0  0  0  0  0  0  0  0  0  0  0  0
   -2.1856    0.7587   -8.0706 H   0  0  0  0  0  0  0  0  0  0  0  0
   -4.2369    1.2031  -11.4492 H   0  0  0  0  0  0  0  0  0  0  0  0
   -3.2194   -0.1968  -11.7838 H   0  0  0  0  0  0  0  0  0  0  0  0
   -4.9309   -0.2189  -12.2527 H   0  0  0  0  0  0  0  0  0  0  0  0
   -7.7924   -2.9825   -9.3507 H   0  0  0  0  0  0  0  0  0  0  0  0
  1  2  2  0  0  0  0
  2  3  1  0  0  0  0
  3  4  2  0  0  0  0
  4  5  1  0  0  0  0
  4  6  1  0  0  0  0
  6  7  1  0  0  0  0
  6  8  2  0  0  0  0
  8  9  1  0  0  0  0
  9 10  2  0  0  0  0
 10 11  1  0  0  0  0
 10 12  1  0  0  0  0
 12 13  2  0  0  0  0
 13 14  1  0  0  0  0
 14 15  2  0  0  0  0
 15 16  1  0  0  0  0
 15 17  1  0  0  0  0
 17 18  1  0  0  0  0
 17 19  2  0  0  0  0
 19 20  1  0  0  0  0
 20 21  2  0  0  0  0
 21 22  1  0  0  0  0
 21 23  1  0  0  0  0
 23 24  2  0  0  0  0
 24 25  1  0  0  0  0
 25 26  2  0  0  0  0
 26 27  1  0  0  0  0
 26 28  1  0  0  0  0
 28 29  1  0  0  0  0
 28 30  2  0  0  0  0
 30 31  1  0  0  0  0
 31 32  2  0  0  0  0
 32 33  1  0  0  0  0
 32 34  1  0  0  0  0
 34 35  2  0  0  0  0
 35 36  1  0  0  0  0
 36 37  2  0  0  0  0
 37 38  1  0  0  0  0
 37 39  1  0  0  0  0
 39 40  1  0  0  0  0
 39 41  2  0  0  0  0
 41 42  1  0  0  0  0
 42 43  2  0  0  0  0
 43 44  1  0  0  0  0
 43 45  1  0  0  0  0
 45 46  2  0  0  0  0
 46 47  1  0  0  0  0
 47 48  2  0  0  0  0
 48 49  1  0  0  0  0
 48 50  1  0  0  0  0
 50 51  1  0  0  0  0
 50 52  2  0  0  0  0
 52 53  1  0  0  0  0
 53 54  2  0  0  0  0
 54 55  1  0  0  0  0
 54 56  1  0  0  0  0
 56 57  2  0  0  0  0
 57 58  1  0  0  0  0
 58 59  2  0  0  0  0
 59 60  1  0  0  0  0
 59 61  1  0  0  0  0
 61 62  1  0  0  0  0
 61 63  2  0  0  0  0
 63 64  1  0  0  0  0
 64 65  2  0  0  0  0
 65 66  1  0  0  0  0
 11  1  1  0  0  0  0
 22 12  1  0  0  0  0
 33 23  1  0  0  0  0
 44 34  1  0  0  0  0
 55 45  1  0  0  0  0
 66 56  1  0  0  0  0
  9  2  1  0  0  0  0
 20 13  1  0  0  0  0
 31 24  1  0  0  0  0
 42 35  1  0  0  0  0
 53 46  1  0  0  0  0
 64 57  1  0  0  0  0
  1 67  1  0  0  0  0
  5 68  1  0  0  0  0
  5 69  1  0  0  0  0
  5 70  1  0  0  0  0
  7 71  1  0  0  0  0
  7 72  1  0  0  0  0
  7 73  1  0  0  0  0
 16 74  1  0  0  0  0
 16 75  1  0  0  0  0
 16 76  1  0  0  0  0
 18 77  1  0  0  0  0
 18 78  1  0  0  0  0
 18 79  1  0  0  0  0
 27 80  1  0  0  0  0
 27 81  1  0  0  0  0
 27 82  1  0  0  0  0
 29 83  1  0  0  0  0
 29 84  1  0  0  0  0
 29 85  1  0  0  0  0
 38 86  1  0  0  0  0
 38 87  1  0  0  0  0
 38 88  1  0  0  0  0
 40 89  1  0  0  0  0
 40 90  1  0  0  0  0
 40 91  1  0  0  0  0
 49 92  1  0  0  0  0
 49 93  1  0  0  0  0
 49 94  1  0  0  0  0
 51 95  1  0  0  0  0
 51 96  1  0  0  0  0
 51 97  1  0  0  0  0
 60 98  1  0  0  0  0
 60 99  1  0  0  0  0
 60100  1  0  0  0  0
 62101  1  0  0  0  0
 62102  1  0  0  0  0
 62103  1  0  0  0  0
 65104  1  0  0  0  0
M  END
