
  xtb     02282220563D
 energy: -314.921505210939 gnorm: 0.000465458072 xtb: 6.4.1 (unknown)
155172  0     0  0            999 V2000
    9.8153   -1.0782   10.7662 C   0  0  0  0  0  0  0  0  0  0  0  0
    9.7652   -0.5388    9.5313 C   0  0  0  0  0  0  0  0  0  0  0  0
    8.6453   -0.9929    8.7752 C   0  0  0  0  0  0  0  0  0  0  0  0
    8.3132   -0.6890    7.4466 C   0  0  0  0  0  0  0  0  0  0  0  0
    9.1075    0.2360    6.6527 C   0  0  0  0  0  0  0  0  0  0  0  0
    9.4035    1.8647    7.1840 S   0  0  0  0  0  0  0  0  0  0  0  0
   10.3127    2.2474    5.7625 C   0  0  0  0  0  0  0  0  0  0  0  0
   10.8575    3.6141    5.5341 C   0  0  0  0  0  0  0  0  0  0  0  0
    9.8388    4.4911    4.8021 C   0  0  0  0  0  0  0  0  0  0  0  0
   10.3698    1.1677    4.9330 C   0  0  0  0  0  0  0  0  0  0  0  0
   11.1912    1.1634    3.4268 Cl  0  0  0  0  0  0  0  0  0  0  0  0
    9.6901    0.0252    5.4343 C   0  0  0  0  0  0  0  0  0  0  0  0
    9.6870   -1.4785    4.6125 Cl  0  0  0  0  0  0  0  0  0  0  0  0
    7.1909   -1.3132    6.9166 C   0  0  0  0  0  0  0  0  0  0  0  0
    6.3966   -2.2258    7.6544 C   0  0  0  0  0  0  0  0  0  0  0  0
    6.7223   -2.5213    8.9885 C   0  0  0  0  0  0  0  0  0  0  0  0
    5.9177   -3.4332    9.7852 C   0  0  0  0  0  0  0  0  0  0  0  0
    5.5676   -5.0505    9.2468 S   0  0  0  0  0  0  0  0  0  0  0  0
    4.6745   -5.4220   10.6828 C   0  0  0  0  0  0  0  0  0  0  0  0
    4.0971   -6.7756   10.9072 C   0  0  0  0  0  0  0  0  0  0  0  0
    5.1460   -7.7298   11.4832 C   0  0  0  0  0  0  0  0  0  0  0  0
    4.6593   -4.3472   11.5198 C   0  0  0  0  0  0  0  0  0  0  0  0
    5.3575   -3.2177   11.0137 C   0  0  0  0  0  0  0  0  0  0  0  0
    5.3983   -1.7195   11.8441 Cl  0  0  0  0  0  0  0  0  0  0  0  0
    3.8681   -4.3315   13.0421 Cl  0  0  0  0  0  0  0  0  0  0  0  0
    7.8494   -1.8999    9.5149 C   0  0  0  0  0  0  0  0  0  0  0  0
    8.5134   -2.1643   11.1019 S   0  0  0  0  0  0  0  0  0  0  0  0
    5.2959   -2.6971    6.8981 C   0  0  0  0  0  0  0  0  0  0  0  0
    5.2352   -2.1721    5.6398 C   0  0  0  0  0  0  0  0  0  0  0  0
    6.5427   -1.0551    5.3243 S   0  0  0  0  0  0  0  0  0  0  0  0
    4.2631   -2.4561    4.6320 C   0  0  0  0  0  0  0  0  0  0  0  0
    3.3162   -3.4390    4.6572 C   0  0  0  0  0  0  0  0  0  0  0  0
    2.5031   -3.4692    3.4994 C   0  0  0  0  0  0  0  0  0  0  0  0
    1.4683   -4.3694    3.1903 C   0  0  0  0  0  0  0  0  0  0  0  0
    1.1229   -5.4570    4.0914 C   0  0  0  0  0  0  0  0  0  0  0  0
    2.3308   -6.5824    4.6397 S   0  0  0  0  0  0  0  0  0  0  0  0
    1.1824   -7.4873    5.5670 C   0  0  0  0  0  0  0  0  0  0  0  0
    1.6113   -8.6497    6.3923 C   0  0  0  0  0  0  0  0  0  0  0  0
    2.3642   -8.1846    7.6409 C   0  0  0  0  0  0  0  0  0  0  0  0
   -0.0569   -6.9336    5.4525 C   0  0  0  0  0  0  0  0  0  0  0  0
   -1.4562   -7.5432    6.2362 Cl  0  0  0  0  0  0  0  0  0  0  0  0
   -0.0967   -5.7873    4.6122 C   0  0  0  0  0  0  0  0  0  0  0  0
   -1.5280   -4.8792    4.3692 Cl  0  0  0  0  0  0  0  0  0  0  0  0
    0.8136   -4.1906    1.9795 C   0  0  0  0  0  0  0  0  0  0  0  0
    1.1392   -3.1459    1.0770 C   0  0  0  0  0  0  0  0  0  0  0  0
    2.1724   -2.2440    1.3865 C   0  0  0  0  0  0  0  0  0  0  0  0
    2.5476   -1.1778    0.4721 C   0  0  0  0  0  0  0  0  0  0  0  0
    2.9684   -1.5159   -1.1817 S   0  0  0  0  0  0  0  0  0  0  0  0
    3.2978    0.1480   -1.5222 C   0  0  0  0  0  0  0  0  0  0  0  0
    3.7952    0.5828   -2.8565 C   0  0  0  0  0  0  0  0  0  0  0  0
    5.3246    0.5459   -2.9066 C   0  0  0  0  0  0  0  0  0  0  0  0
    3.0935    0.9072   -0.4092 C   0  0  0  0  0  0  0  0  0  0  0  0
    2.6659    0.1612    0.7218 C   0  0  0  0  0  0  0  0  0  0  0  0
    2.2622    0.9044    2.2119 Cl  0  0  0  0  0  0  0  0  0  0  0  0
    3.3137    2.6077   -0.3611 Cl  0  0  0  0  0  0  0  0  0  0  0  0
    2.8368   -2.4336    2.5914 C   0  0  0  0  0  0  0  0  0  0  0  0
    4.1871   -1.5020    3.1687 S   0  0  0  0  0  0  0  0  0  0  0  0
    0.3139   -3.1696   -0.0715 C   0  0  0  0  0  0  0  0  0  0  0  0
   -0.5787   -4.2030   -0.0738 C   0  0  0  0  0  0  0  0  0  0  0  0
   -0.4519   -5.2064    1.3509 S   0  0  0  0  0  0  0  0  0  0  0  0
   -1.5630   -4.4944   -1.0567 C   0  0  0  0  0  0  0  0  0  0  0  0
   -1.8336   -3.4629   -2.4322 S   0  0  0  0  0  0  0  0  0  0  0  0
   -3.1391   -4.4601   -3.0131 C   0  0  0  0  0  0  0  0  0  0  0  0
   -3.3395   -5.5216   -2.1556 C   0  0  0  0  0  0  0  0  0  0  0  0
   -2.4478   -5.5525   -1.0579 C   0  0  0  0  0  0  0  0  0  0  0  0
   -2.4503   -6.4882   -0.0910 O   0  0  0  0  0  0  0  0  0  0  0  0
   -4.6135   -6.7617   -2.2848 S   0  0  0  0  0  0  0  0  0  0  0  0
   -3.8431   -4.0474   -4.1879 C   0  0  0  0  0  0  0  0  0  0  0  0
   -3.9404   -2.3358   -4.5298 S   0  0  0  0  0  0  0  0  0  0  0  0
   -4.8474   -2.6162   -5.9892 C   0  0  0  0  0  0  0  0  0  0  0  0
   -5.0471   -3.9642   -6.1936 C   0  0  0  0  0  0  0  0  0  0  0  0
   -4.4688   -4.7751   -5.1793 C   0  0  0  0  0  0  0  0  0  0  0  0
   -4.5483   -6.1204   -5.2796 O   0  0  0  0  0  0  0  0  0  0  0  0
   -5.9866   -4.6757   -7.4878 S   0  0  0  0  0  0  0  0  0  0  0  0
   -5.2956   -1.4957   -6.7447 C   0  0  0  0  0  0  0  0  0  0  0  0
   -5.5100    0.0436   -5.9599 S   0  0  0  0  0  0  0  0  0  0  0  0
   -6.0617    0.7950   -7.4271 C   0  0  0  0  0  0  0  0  0  0  0  0
   -6.0347   -0.1117   -8.4659 C   0  0  0  0  0  0  0  0  0  0  0  0
   -5.6006   -1.4049   -8.0893 C   0  0  0  0  0  0  0  0  0  0  0  0
   -5.4278   -2.4230   -8.9501 O   0  0  0  0  0  0  0  0  0  0  0  0
   -6.4499    0.2079  -10.1594 S   0  0  0  0  0  0  0  0  0  0  0  0
   -6.4448    2.1686   -7.4147 C   0  0  0  0  0  0  0  0  0  0  0  0
   -7.2024    2.8601   -8.3164 C   0  0  0  0  0  0  0  0  0  0  0  0
   -7.4020    4.2177   -7.9632 C   0  0  0  0  0  0  0  0  0  0  0  0
   -8.0775    5.2081   -8.6947 C   0  0  0  0  0  0  0  0  0  0  0  0
   -8.7166    4.9042   -9.9648 C   0  0  0  0  0  0  0  0  0  0  0  0
   -9.8959    3.6331  -10.1032 S   0  0  0  0  0  0  0  0  0  0  0  0
  -10.1341    3.9284  -11.7917 C   0  0  0  0  0  0  0  0  0  0  0  0
  -11.0488    3.0745  -12.5976 C   0  0  0  0  0  0  0  0  0  0  0  0
  -10.3670    1.7580  -12.9788 C   0  0  0  0  0  0  0  0  0  0  0  0
   -9.3337    4.9486  -12.2101 C   0  0  0  0  0  0  0  0  0  0  0  0
   -9.2793    5.5233  -13.8263 Cl  0  0  0  0  0  0  0  0  0  0  0  0
   -8.5341    5.5087  -11.1772 C   0  0  0  0  0  0  0  0  0  0  0  0
   -7.3956    6.7558  -11.4703 Cl  0  0  0  0  0  0  0  0  0  0  0  0
   -8.1021    6.4867   -8.1499 C   0  0  0  0  0  0  0  0  0  0  0  0
   -7.4789    6.8125   -6.9214 C   0  0  0  0  0  0  0  0  0  0  0  0
   -6.7988    5.8238   -6.1940 C   0  0  0  0  0  0  0  0  0  0  0  0
   -6.1471    6.1157   -4.9268 C   0  0  0  0  0  0  0  0  0  0  0  0
   -4.9500    7.3696   -4.7901 S   0  0  0  0  0  0  0  0  0  0  0  0
   -4.6759    7.0355   -3.1137 C   0  0  0  0  0  0  0  0  0  0  0  0
   -3.7177    7.8449   -2.3120 C   0  0  0  0  0  0  0  0  0  0  0  0
   -4.3526    9.1639   -1.8649 C   0  0  0  0  0  0  0  0  0  0  0  0
   -5.4826    6.0195   -2.6969 C   0  0  0  0  0  0  0  0  0  0  0  0
   -6.3123    5.4905   -3.7225 C   0  0  0  0  0  0  0  0  0  0  0  0
   -7.4560    4.2486   -3.4288 Cl  0  0  0  0  0  0  0  0  0  0  0  0
   -5.5076    5.4120   -1.0921 Cl  0  0  0  0  0  0  0  0  0  0  0  0
   -6.7725    4.5458   -6.7381 C   0  0  0  0  0  0  0  0  0  0  0  0
   -5.9408    3.1737   -6.0686 S   0  0  0  0  0  0  0  0  0  0  0  0
   -7.6978    8.1758   -6.5680 C   0  0  0  0  0  0  0  0  0  0  0  0
   -8.4458    8.8373   -7.4745 C   0  0  0  0  0  0  0  0  0  0  0  0
   -8.9322    7.8631   -8.8167 S   0  0  0  0  0  0  0  0  0  0  0  0
   10.5489   -0.9082   11.5299 H   0  0  0  0  0  0  0  0  0  0  0  0
   10.4943    0.1533    9.1524 H   0  0  0  0  0  0  0  0  0  0  0  0
   11.7662    3.5337    4.9343 H   0  0  0  0  0  0  0  0  0  0  0  0
   11.1087    4.0696    6.4932 H   0  0  0  0  0  0  0  0  0  0  0  0
    9.5883    4.0527    3.8396 H   0  0  0  0  0  0  0  0  0  0  0  0
    8.9284    4.5829    5.3895 H   0  0  0  0  0  0  0  0  0  0  0  0
   10.2503    5.4833    4.6373 H   0  0  0  0  0  0  0  0  0  0  0  0
    3.7260   -7.1736    9.9618 H   0  0  0  0  0  0  0  0  0  0  0  0
    3.2619   -6.6868   11.6043 H   0  0  0  0  0  0  0  0  0  0  0  0
    4.7081   -8.7110   11.6453 H   0  0  0  0  0  0  0  0  0  0  0  0
    5.9830   -7.8290   10.7963 H   0  0  0  0  0  0  0  0  0  0  0  0
    5.5179   -7.3530   12.4325 H   0  0  0  0  0  0  0  0  0  0  0  0
    4.5692   -3.3883    7.2813 H   0  0  0  0  0  0  0  0  0  0  0  0
    3.2090   -4.1272    5.4743 H   0  0  0  0  0  0  0  0  0  0  0  0
    0.7250   -9.2154    6.6838 H   0  0  0  0  0  0  0  0  0  0  0  0
    2.2608   -9.2976    5.8003 H   0  0  0  0  0  0  0  0  0  0  0  0
    3.2522   -7.6240    7.3558 H   0  0  0  0  0  0  0  0  0  0  0  0
    2.6659   -9.0435    8.2347 H   0  0  0  0  0  0  0  0  0  0  0  0
    1.7252   -7.5460    8.2466 H   0  0  0  0  0  0  0  0  0  0  0  0
    3.4493    1.6010   -3.0455 H   0  0  0  0  0  0  0  0  0  0  0  0
    3.3884   -0.0749   -3.6262 H   0  0  0  0  0  0  0  0  0  0  0  0
    5.6841   -0.4637   -2.7223 H   0  0  0  0  0  0  0  0  0  0  0  0
    5.7420    1.2064   -2.1511 H   0  0  0  0  0  0  0  0  0  0  0  0
    5.6738    0.8685   -3.8837 H   0  0  0  0  0  0  0  0  0  0  0  0
    0.3667   -2.4504   -0.8686 H   0  0  0  0  0  0  0  0  0  0  0  0
   -3.1869   -7.1012   -0.2335 H   0  0  0  0  0  0  0  0  0  0  0  0
   -5.6347   -5.9137   -2.4220 H   0  0  0  0  0  0  0  0  0  0  0  0
   -4.2449   -6.5478   -4.4615 H   0  0  0  0  0  0  0  0  0  0  0  0
   -5.8309   -5.9122   -7.0128 H   0  0  0  0  0  0  0  0  0  0  0  0
   -5.7100   -2.1500   -9.8356 H   0  0  0  0  0  0  0  0  0  0  0  0
   -5.8363    1.3870  -10.2375 H   0  0  0  0  0  0  0  0  0  0  0  0
   -7.6498    2.4148   -9.1846 H   0  0  0  0  0  0  0  0  0  0  0  0
  -11.3302    3.6185  -13.5007 H   0  0  0  0  0  0  0  0  0  0  0  0
  -11.9508    2.8615  -12.0211 H   0  0  0  0  0  0  0  0  0  0  0  0
   -9.4734    1.9527  -13.5666 H   0  0  0  0  0  0  0  0  0  0  0  0
  -10.0820    1.2074  -12.0854 H   0  0  0  0  0  0  0  0  0  0  0  0
  -11.0435    1.1436  -13.5664 H   0  0  0  0  0  0  0  0  0  0  0  0
   -2.8293    8.0550   -2.9103 H   0  0  0  0  0  0  0  0  0  0  0  0
   -3.4211    7.2652   -1.4362 H   0  0  0  0  0  0  0  0  0  0  0  0
   -4.6468    9.7535   -2.7301 H   0  0  0  0  0  0  0  0  0  0  0  0
   -5.2337    8.9714   -1.2580 H   0  0  0  0  0  0  0  0  0  0  0  0
   -3.6428    9.7384   -1.2761 H   0  0  0  0  0  0  0  0  0  0  0  0
   -7.3135    8.6238   -5.6704 H   0  0  0  0  0  0  0  0  0  0  0  0
   -8.7561    9.8636   -7.4488 H   0  0  0  0  0  0  0  0  0  0  0  0
  1  2  2  0  0  0  0
  2  3  1  0  0  0  0
  3  4  2  0  0  0  0
  4  5  1  0  0  0  0
  5  6  1  0  0  0  0
  6  7  1  0  0  0  0
  7  8  1  0  0  0  0
  8  9  1  0  0  0  0
  7 10  2  0  0  0  0
 10 11  1  0  0  0  0
 10 12  1  0  0  0  0
 12 13  1  0  0  0  0
  4 14  1  0  0  0  0
 14 15  2  0  0  0  0
 15 16  1  0  0  0  0
 16 17  1  0  0  0  0
 17 18  1  0  0  0  0
 18 19  1  0  0  0  0
 19 20  1  0  0  0  0
 20 21  1  0  0  0  0
 19 22  2  0  0  0  0
 22 23  1  0  0  0  0
 23 24  1  0  0  0  0
 22 25  1  0  0  0  0
 16 26  2  0  0  0  0
 26 27  1  0  0  0  0
 15 28  1  0  0  0  0
 28 29  2  0  0  0  0
 29 30  1  0  0  0  0
 29 31  1  0  0  0  0
 31 32  2  0  0  0  0
 32 33  1  0  0  0  0
 33 34  2  0  0  0  0
 34 35  1  0  0  0  0
 35 36  1  0  0  0  0
 36 37  1  0  0  0  0
 37 38  1  0  0  0  0
 38 39  1  0  0  0  0
 37 40  2  0  0  0  0
 40 41  1  0  0  0  0
 40 42  1  0  0  0  0
 42 43  1  0  0  0  0
 34 44  1  0  0  0  0
 44 45  2  0  0  0  0
 45 46  1  0  0  0  0
 46 47  1  0  0  0  0
 47 48  1  0  0  0  0
 48 49  1  0  0  0  0
 49 50  1  0  0  0  0
 50 51  1  0  0  0  0
 49 52  2  0  0  0  0
 52 53  1  0  0  0  0
 53 54  1  0  0  0  0
 52 55  1  0  0  0  0
 46 56  2  0  0  0  0
 56 57  1  0  0  0  0
 45 58  1  0  0  0  0
 58 59  2  0  0  0  0
 59 60  1  0  0  0  0
 59 61  1  0  0  0  0
 61 62  1  0  0  0  0
 62 63  1  0  0  0  0
 63 64  2  0  0  0  0
 64 65  1  0  0  0  0
 65 66  1  0  0  0  0
 64 67  1  0  0  0  0
 63 68  1  0  0  0  0
 68 69  1  0  0  0  0
 69 70  1  0  0  0  0
 70 71  2  0  0  0  0
 71 72  1  0  0  0  0
 72 73  1  0  0  0  0
 71 74  1  0  0  0  0
 70 75  1  0  0  0  0
 75 76  1  0  0  0  0
 76 77  1  0  0  0  0
 77 78  2  0  0  0  0
 78 79  1  0  0  0  0
 79 80  1  0  0  0  0
 78 81  1  0  0  0  0
 77 82  1  0  0  0  0
 82 83  2  0  0  0  0
 83 84  1  0  0  0  0
 84 85  2  0  0  0  0
 85 86  1  0  0  0  0
 86 87  1  0  0  0  0
 87 88  1  0  0  0  0
 88 89  1  0  0  0  0
 89 90  1  0  0  0  0
 88 91  2  0  0  0  0
 91 92  1  0  0  0  0
 91 93  1  0  0  0  0
 93 94  1  0  0  0  0
 85 95  1  0  0  0  0
 95 96  2  0  0  0  0
 96 97  1  0  0  0  0
 97 98  1  0  0  0  0
 98 99  1  0  0  0  0
 99100  1  0  0  0  0
100101  1  0  0  0  0
101102  1  0  0  0  0
100103  2  0  0  0  0
103104  1  0  0  0  0
104105  1  0  0  0  0
103106  1  0  0  0  0
 97107  2  0  0  0  0
107108  1  0  0  0  0
 96109  1  0  0  0  0
109110  2  0  0  0  0
110111  1  0  0  0  0
 27  1  1  0  0  0  0
 57 31  1  0  0  0  0
 65 61  2  0  0  0  0
 72 68  2  0  0  0  0
 79 75  2  0  0  0  0
108 82  1  0  0  0  0
 26  3  1  0  0  0  0
 56 33  1  0  0  0  0
107 84  1  0  0  0  0
 12  5  2  0  0  0  0
 30 14  1  0  0  0  0
 42 35  2  0  0  0  0
 60 44  1  0  0  0  0
 93 86  2  0  0  0  0
111 95  1  0  0  0  0
 23 17  2  0  0  0  0
 53 47  2  0  0  0  0
104 98  2  0  0  0  0
  1112  1  0  0  0  0
  2113  1  0  0  0  0
  8114  1  0  0  0  0
  8115  1  0  0  0  0
  9116  1  0  0  0  0
  9117  1  0  0  0  0
  9118  1  0  0  0  0
 20119  1  0  0  0  0
 20120  1  0  0  0  0
 21121  1  0  0  0  0
 21122  1  0  0  0  0
 21123  1  0  0  0  0
 28124  1  0  0  0  0
 32125  1  0  0  0  0
 38126  1  0  0  0  0
 38127  1  0  0  0  0
 39128  1  0  0  0  0
 39129  1  0  0  0  0
 39130  1  0  0  0  0
 50131  1  0  0  0  0
 50132  1  0  0  0  0
 51133  1  0  0  0  0
 51134  1  0  0  0  0
 51135  1  0  0  0  0
 58136  1  0  0  0  0
 66137  1  0  0  0  0
 67138  1  0  0  0  0
 73139  1  0  0  0  0
 74140  1  0  0  0  0
 80141  1  0  0  0  0
 81142  1  0  0  0  0
 83143  1  0  0  0  0
 89144  1  0  0  0  0
 89145  1  0  0  0  0
 90146  1  0  0  0  0
 90147  1  0  0  0  0
 90148  1  0  0  0  0
101149  1  0  0  0  0
101150  1  0  0  0  0
102151  1  0  0  0  0
102152  1  0  0  0  0
102153  1  0  0  0  0
109154  1  0  0  0  0
110155  1  0  0  0  0
M  END
