71

C          1.73050       -5.61120        9.19700
S          2.43290       -3.90240        9.10850
C          1.57280       -4.18220        7.49440
C          1.81010       -5.66450        7.67030
N          0.91010       -6.21330        6.68690
C          1.08650       -5.30090        5.52960
C          1.83630       -4.00670        6.01330
C          1.30920       -2.74940        5.40620
S          0.65150       -2.74250        3.79800
C          0.33850       -1.03710        3.86730
C          0.73230       -0.52350        5.07240
C          1.29420       -1.49720        5.94890
O          1.74790       -1.11340        7.16990
S          0.58860        1.16570        5.52520
C         -0.26220       -0.28010        2.77030
S         -2.14170       -0.49050        2.61370
C         -1.39970       -1.70870        1.44660
C         -0.16900       -0.84090        1.34490
N          0.76890       -1.75770        0.74780
C         -0.05190       -2.42740       -0.29240
C         -1.56530       -2.15300        0.00040
C         -2.18110       -1.09450       -0.85890
S         -1.30330       -0.18790       -2.05240
C         -2.70550        0.74680       -2.46150
C         -3.77840        0.37100       -1.70060
C         -3.47690       -0.67050       -0.77910
O         -4.43590       -1.14540        0.06080
S         -5.37320        1.09220       -1.80970
C         -2.68540        1.81720       -3.45740
S         -2.88010        1.24180       -5.25830
C         -1.06870        1.35820       -4.95320
C         -1.32370        2.38240       -3.87630
N         -0.05210        2.38610       -3.19840
C          0.90310        2.43130       -4.33140
C          0.18760        1.89480       -5.62400
C         -0.03980        2.92300       -6.67410
S         -0.65580        4.51640       -6.36420
C         -0.60890        4.92360       -8.03160
C         -0.15500        3.89020       -8.78570
C          0.17620        2.74030       -8.01110
O          0.66910        1.58430       -8.52120
S          0.04480        3.90090      -10.54380
H          0.71940       -5.56930        9.59500
H          2.34790       -6.31120        9.75080
H          0.52180       -3.94860        7.69090
H          2.86770       -5.88850        7.43290
H          1.10610       -7.17590        6.43730
H          1.63980       -5.76920        4.71180
H          0.09280       -5.03160        5.16200
H          2.90790       -4.10480        5.79650
H          2.07590       -1.86810        7.67310
H          1.17000        0.97980        6.70600
H         -0.02180        0.77890        2.87100
H         -1.19220       -2.59330        2.05300
H         -0.38690        0.01550        0.68160
H          1.58230       -1.30810        0.34350
H          0.19740       -2.07740       -1.29790
H          0.15090       -3.49950       -0.23600
H         -2.14580       -3.07710       -0.09280
H         -4.02950       -1.62180        0.79290
H         -5.85080        0.36980       -0.80060
H         -3.45310        2.55750       -3.22880
H         -0.80690        0.39880       -4.50110
H         -1.54230        3.36000       -4.34200
H          0.08300        3.17190       -2.57160
H          1.26270        3.44960       -4.51630
H          1.75670        1.79960       -4.07940
H          0.76630        1.09620       -6.09340
H         -0.93040        5.89410       -8.35150
H          0.71950        1.65800       -9.48260
H         -0.44890        5.12000      -10.72140
