78

C          2.88090       10.73320       -3.40300
S          2.24930       10.26200       -1.87080
C          1.85820        8.66390       -2.46410
C          2.21580        8.54370       -3.78750
C          2.79970        9.73090       -4.31580
O          3.21140        9.78500       -5.61220
S          2.00330        7.10910       -4.77440
C          1.25530        7.72200       -1.58650
S          0.82260        6.10890       -2.13700
C          0.21470        5.72840       -0.56870
C         -0.39070        4.69590        0.15300
C         -0.59860        5.18350        1.45770
N         -0.12540        6.46610        1.55680
C         -0.25120        7.34140        2.69190
C         -1.55810        8.13220        2.65130
C          0.35420        6.81350        0.32010
C          0.94340        7.93900       -0.26140
C         -1.19980        4.25300        2.31620
C         -1.45410        3.06040        1.67250
S         -0.94260        3.06950       -0.01130
C         -2.07080        1.88810        2.20960
S         -1.75410        0.30770        1.54700
C         -2.81030       -0.45520        2.70550
C         -3.37320        0.47900        3.54840
C         -2.96270        1.80320        3.25590
O         -3.45610        2.85560        3.96550
S         -4.40820        0.13320        4.91940
C         -2.97950       -1.86930        2.68470
S         -1.71970       -2.90990        2.08260
C         -2.64970       -4.35140        2.41780
C         -3.86970       -4.01290        2.95790
C         -4.06400       -2.61450        3.09590
O         -5.21330       -2.05950        3.52410
S         -5.21810       -5.08600        3.34520
C         -2.06900       -5.61420        2.08580
S         -0.96220       -5.68800        0.73450
C         -0.67370       -7.39450        0.95190
C         -1.38490       -7.84810        2.04120
C         -2.16790       -6.85450        2.67600
O         -2.89580       -7.11600        3.79470
S         -1.43360       -9.50890        2.66580
C          0.19520       -8.07590        0.06030
S          0.52460       -9.80210        0.21750
C          1.54830       -9.74680       -1.16430
C          2.36200      -10.55860       -1.95900
C          2.89580       -9.73090       -2.96340
N          2.42240       -8.45390       -2.81640
C          2.80680       -7.30370       -3.59200
C          4.05170       -6.62940       -3.01840
C          1.61380       -8.44900       -1.71050
C          0.84960       -7.50960       -1.01310
C          3.74930      -10.41750       -3.84970
C          3.84840      -11.73050       -3.51060
S          2.91930      -12.18470       -2.11790
H          3.27390       11.72150       -3.53580
H          3.58140       10.65430       -5.79860
H          2.53390        7.68530       -5.85240
H          0.60020        8.02730        2.69010
H         -0.20530        6.73450        3.60020
H         -2.40980        7.45590        2.64980
H         -1.62900        8.78300        3.51840
H         -1.59980        8.74090        1.75130
H          1.14110        8.87250        0.23380
H         -1.36910        4.42020        3.36550
H         -3.25700        3.67280        3.49280
H         -4.40940        1.40360        5.32460
H         -5.80430       -2.75620        3.84610
H         -4.47600       -6.13710        3.66780
H         -2.73950       -8.04490        4.03660
H         -0.12040       -9.66330        2.82030
H          2.99480       -7.63060       -4.61830
H          1.96910       -6.60130       -3.59840
H          4.32160       -5.76840       -3.62350
H          3.86390       -6.29650       -2.00030
H          4.88660       -7.32630       -3.00670
H          0.76040       -6.46580       -1.25380
H          4.26240       -9.97640       -4.68470
H          4.42580      -12.48820       -4.00170
