
  xtb     02282218523D
 energy: -164.744311056081 gnorm: 0.000315303456 xtb: 6.4.1 (unknown)
 89100  0     0  0            999 V2000
   11.9622    7.3148   -6.9216 C   0  0  0  0  0  0  0  0  0  0  0  0
   10.9377    6.0610   -7.5480 S   0  0  0  0  0  0  0  0  0  0  0  0
   10.0674    6.0245   -6.0574 C   0  0  0  0  0  0  0  0  0  0  0  0
    9.0036    5.3792   -5.4189 C   0  0  0  0  0  0  0  0  0  0  0  0
    8.9054    5.9413   -4.1323 C   0  0  0  0  0  0  0  0  0  0  0  0
    9.8809    6.8890   -3.9645 N   0  0  0  0  0  0  0  0  0  0  0  0
   10.0317    7.7553   -2.8257 C   0  0  0  0  0  0  0  0  0  0  0  0
    9.1502    8.9978   -2.9442 C   0  0  0  0  0  0  0  0  0  0  0  0
   10.5814    6.9582   -5.1405 C   0  0  0  0  0  0  0  0  0  0  0  0
   11.6703    7.6937   -5.6491 C   0  0  0  0  0  0  0  0  0  0  0  0
    7.8735    5.3954   -3.3581 C   0  0  0  0  0  0  0  0  0  0  0  0
    7.1836    4.4232   -4.0436 C   0  0  0  0  0  0  0  0  0  0  0  0
    7.8061    4.1626   -5.6723 S   0  0  0  0  0  0  0  0  0  0  0  0
    6.0790    3.6600   -3.5798 C   0  0  0  0  0  0  0  0  0  0  0  0
    5.4843    3.9093   -1.9386 S   0  0  0  0  0  0  0  0  0  0  0  0
    4.2729    2.7061   -2.1863 C   0  0  0  0  0  0  0  0  0  0  0  0
    3.2183    2.0658   -1.5365 C   0  0  0  0  0  0  0  0  0  0  0  0
    2.6736    1.1461   -2.4557 C   0  0  0  0  0  0  0  0  0  0  0  0
    3.3541    1.2228   -3.6430 N   0  0  0  0  0  0  0  0  0  0  0  0
    3.1697    0.3675   -4.7856 C   0  0  0  0  0  0  0  0  0  0  0  0
    4.0163   -0.8999   -4.6803 C   0  0  0  0  0  0  0  0  0  0  0  0
    4.3439    2.1574   -3.4828 C   0  0  0  0  0  0  0  0  0  0  0  0
    5.3695    2.7010   -4.2651 C   0  0  0  0  0  0  0  0  0  0  0  0
    1.5970    0.4135   -1.9431 C   0  0  0  0  0  0  0  0  0  0  0  0
    1.3176    0.7618   -0.6412 C   0  0  0  0  0  0  0  0  0  0  0  0
    2.3891    2.0196   -0.0244 S   0  0  0  0  0  0  0  0  0  0  0  0
    0.3144    0.2255    0.2076 C   0  0  0  0  0  0  0  0  0  0  0  0
   -0.7975   -0.9966   -0.4081 S   0  0  0  0  0  0  0  0  0  0  0  0
   -1.5681   -1.0859    1.1342 C   0  0  0  0  0  0  0  0  0  0  0  0
   -2.5892   -1.7524    1.8123 C   0  0  0  0  0  0  0  0  0  0  0  0
   -2.5851   -1.2582    3.1339 C   0  0  0  0  0  0  0  0  0  0  0  0
   -1.6147   -0.2997    3.2670 N   0  0  0  0  0  0  0  0  0  0  0  0
   -1.2395    0.3641    4.4873 C   0  0  0  0  0  0  0  0  0  0  0  0
   -0.2060   -0.4433    5.2707 C   0  0  0  0  0  0  0  0  0  0  0  0
   -0.9756   -0.2017    2.0596 C   0  0  0  0  0  0  0  0  0  0  0  0
    0.0852    0.5388    1.5283 C   0  0  0  0  0  0  0  0  0  0  0  0
   -3.5513   -1.8434    3.9577 C   0  0  0  0  0  0  0  0  0  0  0  0
   -4.2985   -2.7753    3.2725 C   0  0  0  0  0  0  0  0  0  0  0  0
   -3.8163   -2.9451    1.5881 S   0  0  0  0  0  0  0  0  0  0  0  0
   -5.3606   -3.5674    3.7888 C   0  0  0  0  0  0  0  0  0  0  0  0
   -6.3344   -4.5731    2.7578 S   0  0  0  0  0  0  0  0  0  0  0  0
   -7.3102   -5.1325    4.0952 C   0  0  0  0  0  0  0  0  0  0  0  0
   -6.8780   -4.5543    5.2689 C   0  0  0  0  0  0  0  0  0  0  0  0
   -5.7844   -3.6703    5.0991 C   0  0  0  0  0  0  0  0  0  0  0  0
   -5.2062   -2.9979    6.1224 O   0  0  0  0  0  0  0  0  0  0  0  0
   -7.4326   -4.8936    6.9123 S   0  0  0  0  0  0  0  0  0  0  0  0
   -8.3532   -6.0669    3.8070 C   0  0  0  0  0  0  0  0  0  0  0  0
   -8.1462   -7.1372    2.4448 S   0  0  0  0  0  0  0  0  0  0  0  0
   -9.7106   -7.8734    2.6790 C   0  0  0  0  0  0  0  0  0  0  0  0
  -10.3431   -7.2994    3.7554 C   0  0  0  0  0  0  0  0  0  0  0  0
   -9.5867   -6.2765    4.3819 C   0  0  0  0  0  0  0  0  0  0  0  0
  -10.0772   -5.5516    5.4264 O   0  0  0  0  0  0  0  0  0  0  0  0
  -11.8932   -7.7558    4.4728 S   0  0  0  0  0  0  0  0  0  0  0  0
  -10.1008   -8.9269    1.7883 C   0  0  0  0  0  0  0  0  0  0  0  0
   -8.8576   -9.9740    1.1526 S   0  0  0  0  0  0  0  0  0  0  0  0
   -9.9962  -10.8635    0.2265 C   0  0  0  0  0  0  0  0  0  0  0  0
  -11.2582  -10.3843    0.3864 C   0  0  0  0  0  0  0  0  0  0  0  0
  -11.3271   -9.2728    1.2688 C   0  0  0  0  0  0  0  0  0  0  0  0
  -12.4858   -8.6001    1.5297 O   0  0  0  0  0  0  0  0  0  0  0  0
  -12.7171  -11.0120   -0.3958 S   0  0  0  0  0  0  0  0  0  0  0  0
   12.7351    7.7005   -7.5560 H   0  0  0  0  0  0  0  0  0  0  0  0
   11.0833    8.0454   -2.7530 H   0  0  0  0  0  0  0  0  0  0  0  0
    9.7637    7.1906   -1.9282 H   0  0  0  0  0  0  0  0  0  0  0  0
    9.4150    9.5638   -3.8343 H   0  0  0  0  0  0  0  0  0  0  0  0
    8.1041    8.7097   -3.0163 H   0  0  0  0  0  0  0  0  0  0  0  0
    9.2795    9.6332   -2.0724 H   0  0  0  0  0  0  0  0  0  0  0  0
   12.2075    8.4570   -5.1159 H   0  0  0  0  0  0  0  0  0  0  0  0
    7.6242    5.6809   -2.3520 H   0  0  0  0  0  0  0  0  0  0  0  0
    2.1097    0.1071   -4.8494 H   0  0  0  0  0  0  0  0  0  0  0  0
    3.4455    0.9300   -5.6819 H   0  0  0  0  0  0  0  0  0  0  0  0
    3.8589   -1.5283   -5.5526 H   0  0  0  0  0  0  0  0  0  0  0  0
    5.0713   -0.6431   -4.6184 H   0  0  0  0  0  0  0  0  0  0  0  0
    3.7434   -1.4611   -3.7896 H   0  0  0  0  0  0  0  0  0  0  0  0
    5.6017    2.4245   -5.2778 H   0  0  0  0  0  0  0  0  0  0  0  0
    1.0399   -0.3393   -2.4710 H   0  0  0  0  0  0  0  0  0  0  0  0
   -2.1409    0.5044    5.0898 H   0  0  0  0  0  0  0  0  0  0  0  0
   -0.8338    1.3466    4.2308 H   0  0  0  0  0  0  0  0  0  0  0  0
    0.0608    0.0784    6.1856 H   0  0  0  0  0  0  0  0  0  0  0  0
    0.6914   -0.5856    4.6731 H   0  0  0  0  0  0  0  0  0  0  0  0
   -0.6101   -1.4195    5.5278 H   0  0  0  0  0  0  0  0  0  0  0  0
    0.6739    1.2642    2.0603 H   0  0  0  0  0  0  0  0  0  0  0  0
   -3.7157   -1.6208    4.9943 H   0  0  0  0  0  0  0  0  0  0  0  0
   -5.6737   -3.2285    6.9391 H   0  0  0  0  0  0  0  0  0  0  0  0
   -8.6803   -5.1981    6.5829 H   0  0  0  0  0  0  0  0  0  0  0  0
  -10.9873   -5.8434    5.5943 H   0  0  0  0  0  0  0  0  0  0  0  0
  -12.4726   -8.1199    3.3366 H   0  0  0  0  0  0  0  0  0  0  0  0
   -9.6709  -11.6829   -0.3819 H   0  0  0  0  0  0  0  0  0  0  0  0
  -13.1956   -8.9791    0.9933 H   0  0  0  0  0  0  0  0  0  0  0  0
  -12.0846  -11.8860   -1.1667 H   0  0  0  0  0  0  0  0  0  0  0  0
  1  2  1  0  0  0  0
  2  3  1  0  0  0  0
  3  4  1  0  0  0  0
  4  5  2  0  0  0  0
  5  6  1  0  0  0  0
  6  7  1  0  0  0  0
  7  8  1  0  0  0  0
  6  9  1  0  0  0  0
  9 10  1  0  0  0  0
  5 11  1  0  0  0  0
 11 12  2  0  0  0  0
 12 13  1  0  0  0  0
 12 14  1  0  0  0  0
 14 15  1  0  0  0  0
 15 16  1  0  0  0  0
 16 17  1  0  0  0  0
 17 18  2  0  0  0  0
 18 19  1  0  0  0  0
 19 20  1  0  0  0  0
 20 21  1  0  0  0  0
 19 22  1  0  0  0  0
 22 23  1  0  0  0  0
 18 24  1  0  0  0  0
 24 25  2  0  0  0  0
 25 26  1  0  0  0  0
 25 27  1  0  0  0  0
 27 28  1  0  0  0  0
 28 29  1  0  0  0  0
 29 30  1  0  0  0  0
 30 31  2  0  0  0  0
 31 32  1  0  0  0  0
 32 33  1  0  0  0  0
 33 34  1  0  0  0  0
 32 35  1  0  0  0  0
 35 36  1  0  0  0  0
 31 37  1  0  0  0  0
 37 38  2  0  0  0  0
 38 39  1  0  0  0  0
 38 40  1  0  0  0  0
 40 41  1  0  0  0  0
 41 42  1  0  0  0  0
 42 43  2  0  0  0  0
 43 44  1  0  0  0  0
 44 45  1  0  0  0  0
 43 46  1  0  0  0  0
 42 47  1  0  0  0  0
 47 48  1  0  0  0  0
 48 49  1  0  0  0  0
 49 50  2  0  0  0  0
 50 51  1  0  0  0  0
 51 52  1  0  0  0  0
 50 53  1  0  0  0  0
 49 54  1  0  0  0  0
 54 55  1  0  0  0  0
 55 56  1  0  0  0  0
 56 57  2  0  0  0  0
 57 58  1  0  0  0  0
 58 59  1  0  0  0  0
 57 60  1  0  0  0  0
 10  1  2  0  0  0  0
 23 14  2  0  0  0  0
 36 27  2  0  0  0  0
 44 40  2  0  0  0  0
 51 47  2  0  0  0  0
 58 54  2  0  0  0  0
  9  3  2  0  0  0  0
 22 16  2  0  0  0  0
 35 29  2  0  0  0  0
 13  4  1  0  0  0  0
 26 17  1  0  0  0  0
 39 30  1  0  0  0  0
  1 61  1  0  0  0  0
  7 62  1  0  0  0  0
  7 63  1  0  0  0  0
  8 64  1  0  0  0  0
  8 65  1  0  0  0  0
  8 66  1  0  0  0  0
 10 67  1  0  0  0  0
 11 68  1  0  0  0  0
 20 69  1  0  0  0  0
 20 70  1  0  0  0  0
 21 71  1  0  0  0  0
 21 72  1  0  0  0  0
 21 73  1  0  0  0  0
 23 74  1  0  0  0  0
 24 75  1  0  0  0  0
 33 76  1  0  0  0  0
 33 77  1  0  0  0  0
 34 78  1  0  0  0  0
 34 79  1  0  0  0  0
 34 80  1  0  0  0  0
 36 81  1  0  0  0  0
 37 82  1  0  0  0  0
 45 83  1  0  0  0  0
 46 84  1  0  0  0  0
 52 85  1  0  0  0  0
 53 86  1  0  0  0  0
 56 87  1  0  0  0  0
 59 88  1  0  0  0  0
 60 89  1  0  0  0  0
M  END
