81

C         10.61190        3.26900       -3.28840
C         10.65630        1.90950       -3.03810
F         11.64300        1.17980       -3.56930
C          9.69800        1.28960       -2.24550
F          9.81660       -0.02500       -2.02010
C          8.65030        2.01710       -1.66680
C          8.63270        3.39680       -1.92150
C          9.58910        4.00750       -2.71950
F          9.52800        5.32410       -2.94390
F          7.65420        4.14160       -1.39150
C          7.61730        1.45460       -0.81550
C          7.25190        0.16340       -0.78320
C          6.21340       -0.39990        0.05440
C          5.68600       -1.65880       -0.27010
F          6.14620       -2.28980       -1.35850
C          4.69290       -2.27420        0.47230
F          4.24610       -3.46200        0.04520
C          4.15010       -1.67610        1.61860
C          4.68650       -0.42050        1.94770
C          5.67660        0.19610        1.20320
F          6.13160        1.38180        1.62900
F          4.23070        0.21240        3.03710
C          3.09630       -2.21940        2.44760
C          2.62490       -3.47820        2.40810
C          1.55680       -4.01360        3.22600
C          1.36540       -5.40530        3.25600
F          2.19930       -6.18950        2.56060
C          0.35070       -5.99770        3.98520
F          0.22390       -7.33160        3.97270
C         -0.56880       -5.24190        4.71800
C         -0.36290       -3.86010        4.71980
C          0.65570       -3.26400        3.99450
F          0.74060       -1.92670        4.03660
F         -1.15700       -3.07640        5.46450
C         -1.62380       -5.88950        5.48650
C         -2.92140       -5.54810        5.51130
C         -3.61190       -4.59370        4.70070
S         -2.99530       -3.87020        3.24660
C         -4.46640       -2.99670        2.97070
C         -5.38530       -3.25880        3.95920
C         -4.91550       -4.18700        4.92260
O         -5.64590       -4.61910        5.96100
S         -7.07960       -2.72390        4.02680
C         -4.56410       -2.12540        1.81310
C         -4.19550       -2.57200        0.53840
F         -3.78430       -3.83550        0.37860
C         -4.26780       -1.74510       -0.56760
F         -3.91480       -2.24200       -1.75920
C         -4.70950       -0.41420       -0.49080
C         -5.05830        0.03230        0.79000
C         -4.97930       -0.79460        1.89890
F         -5.27560       -0.27470        3.10180
F         -5.44300        1.29880        0.99100
C         -4.73110        0.38500       -1.69810
C         -5.38390        1.54770       -1.86030
C         -5.39860        2.34560       -3.06890
C         -4.47440        2.25810       -4.11700
F         -3.45460        1.39010       -4.04980
C         -4.54650        3.07030       -5.23900
F         -3.59600        2.91070       -6.16990
C         -5.54900        4.03260       -5.40400
C         -6.46560        4.12900       -4.34700
C         -6.39230        3.32360       -3.22600
F         -7.31260        3.47340       -2.26370
F         -7.45380        5.03230       -4.42120
C         -5.69420        4.92150       -6.54720
C         -5.03400        4.86150       -7.69980
H         11.35710        3.74120       -3.90660
H          7.10380        2.18650       -0.21000
H          7.71170       -0.55240       -1.44860
H          2.70220       -1.51190        3.16110
H          3.06130       -4.20460        1.73920
H         -1.30080       -6.74060        6.06970
H         -3.57950       -6.07030        6.19350
H         -6.51610       -4.18820        5.93130
H         -6.84080       -1.42310        4.15990
H         -4.18420       -0.05370       -2.51920
H         -5.99430        1.95040       -1.06590
H         -6.44270        5.68970       -6.40700
H         -4.29140        4.11750       -7.92300
H         -5.23690        5.57830       -8.47660
