89

C          7.33890       10.14760       -6.69100
S          6.05590        9.02820       -7.02850
C          6.00070        8.58580       -5.36070
C          5.32930        7.74720       -4.46570
C          5.89460        7.97610       -3.19690
N          6.89360        8.90870       -3.29640
C          7.64190        9.47150       -2.20370
C          6.93750       10.68900       -1.60710
C          6.95250        9.29730       -4.60920
C          7.71570       10.19210       -5.38550
C          5.32420        7.19970       -2.17990
C          4.33090        6.38050       -2.66290
S          4.08050        6.55880       -4.39900
C          3.54310        5.45140       -1.93210
S          3.80800        5.26320       -0.19910
C          2.58280        4.04960       -0.13660
C          1.94640        3.17830        0.74610
C          1.00610        2.44600       -0.00410
N          1.03830        2.86180       -1.30850
C          0.28200        2.30230       -2.39780
C          0.99160        1.09960       -3.01680
C          2.00910        3.82450       -1.40420
C          2.55770        4.62220       -2.41540
C          0.28810        1.50960        0.74960
C          0.66130        1.51620        2.07370
S          1.93310        2.70140        2.40360
C          0.13420        0.67400        3.09480
S         -0.96550       -0.61280        2.65460
C         -1.13360       -1.12460        4.31270
C         -0.37200       -0.33570        5.14510
C          0.34140        0.68120        4.45800
O          1.13530        1.52960        5.15740
S         -0.17190       -0.57480        6.86820
C         -1.96140       -2.23770        4.63270
S         -2.20270       -3.53150        3.49290
C         -3.21250       -4.42390        4.60770
C         -3.34910       -3.72400        5.78580
C         -2.65440       -2.48700        5.79800
O         -2.71050       -1.60640        6.81440
S         -4.36960       -4.11560        7.17220
C         -3.74020       -5.67440        4.16180
S         -3.99840       -5.89190        2.44590
C         -4.55840       -7.53160        2.64760
C         -4.51070       -7.87380        3.98130
C         -4.05390       -6.83760        4.83020
O         -3.89570       -7.02230        6.16810
S         -4.98890       -9.42480        4.70030
C         -4.96140       -8.27830        1.51020
S         -5.56570       -9.93040        1.64660
C         -5.80400       -9.99850       -0.05620
C         -6.25050      -10.85360       -1.06730
C         -6.13740      -10.14080       -2.27480
N         -5.65580       -8.88180       -2.03010
C         -5.31610       -7.88830       -3.01460
C         -3.87380       -8.04210       -3.49410
C         -5.43260       -8.79110       -0.68130
C         -4.95590       -7.82450        0.20810
C         -6.55480      -10.88410       -3.39670
C         -6.96990      -12.12600       -3.03020
S         -6.87420      -12.44210       -1.32740
H          7.74100       10.71630       -7.50550
H          7.76490        8.69830       -1.44040
H          8.63100        9.75400       -2.57500
H          6.81110       11.45950       -2.36440
H          5.95600       10.40890       -1.23190
H          7.52330       11.09540       -0.78730
H          8.49360       10.83200       -5.01030
H          5.60530        7.21860       -1.14230
H         -0.69810        2.00380       -2.01540
H          0.14040        3.08330       -3.14950
H          0.40020        0.69850       -3.83520
H          1.96620        1.39380       -3.39930
H          1.13200        0.32080       -2.27080
H          2.27160        4.60820       -3.45150
H         -0.47040        0.84880        0.37160
H          1.53930        2.17860        4.57000
H          0.76530        0.36860        6.95980
H         -3.16360       -2.01310        7.56750
H         -4.32090       -5.43200        7.01940
H         -4.12870       -7.94530        6.36770
H         -4.20580      -10.19900        3.95250
H         -6.00580       -7.99190       -3.85660
H         -5.45920       -6.90100       -2.56680
H         -3.64510       -7.28400       -4.23810
H         -3.72650       -9.02440       -3.93710
H         -3.18590       -7.93210       -2.65910
H         -4.61620       -6.83890       -0.05430
H         -6.54980      -10.53200       -4.41210
H         -7.33780      -12.90420       -3.66890
