
  xtb     02282222473D
 energy: -186.237605808082 gnorm: 0.000458984672 xtb: 6.4.1 (unknown)
 89 98  0     0  0            999 V2000
   -3.7033    9.9398    5.8634 C   0  0  0  0  0  0  0  0  0  0  0  0
   -4.5101    8.5288    6.4284 S   0  0  0  0  0  0  0  0  0  0  0  0
   -3.7985    7.5231    5.1866 C   0  0  0  0  0  0  0  0  0  0  0  0
   -3.0061    8.3039    4.3752 C   0  0  0  0  0  0  0  0  0  0  0  0
   -2.9399    9.6727    4.7700 C   0  0  0  0  0  0  0  0  0  0  0  0
   -2.2101   10.5967    4.1216 O   0  0  0  0  0  0  0  0  0  0  0  0
   -2.0388    7.7525    2.9927 S   0  0  0  0  0  0  0  0  0  0  0  0
   -4.0623    6.1249    5.0971 C   0  0  0  0  0  0  0  0  0  0  0  0
   -3.4302    5.1804    3.7676 S   0  0  0  0  0  0  0  0  0  0  0  0
   -4.1322    3.7132    4.3831 C   0  0  0  0  0  0  0  0  0  0  0  0
   -4.8012    3.9480    5.5643 C   0  0  0  0  0  0  0  0  0  0  0  0
   -4.7683    5.3101    5.9623 C   0  0  0  0  0  0  0  0  0  0  0  0
   -5.3829    5.6739    7.1113 O   0  0  0  0  0  0  0  0  0  0  0  0
   -5.5424    2.7303    6.5801 S   0  0  0  0  0  0  0  0  0  0  0  0
   -3.9161    2.5010    3.6708 C   0  0  0  0  0  0  0  0  0  0  0  0
   -2.5327    2.3431    2.6260 S   0  0  0  0  0  0  0  0  0  0  0  0
   -2.9512    0.7095    2.1997 C   0  0  0  0  0  0  0  0  0  0  0  0
   -4.1000    0.3247    2.8606 C   0  0  0  0  0  0  0  0  0  0  0  0
   -4.6648    1.3388    3.6685 C   0  0  0  0  0  0  0  0  0  0  0  0
   -5.8286    1.2142    4.3301 O   0  0  0  0  0  0  0  0  0  0  0  0
   -4.8791   -1.2666    2.7968 S   0  0  0  0  0  0  0  0  0  0  0  0
   -2.1289   -0.0199    1.2942 C   0  0  0  0  0  0  0  0  0  0  0  0
   -2.4193   -1.1622    0.6019 C   0  0  0  0  0  0  0  0  0  0  0  0
   -1.3504   -1.6225   -0.2017 C   0  0  0  0  0  0  0  0  0  0  0  0
   -1.3041   -2.7918   -0.9837 C   0  0  0  0  0  0  0  0  0  0  0  0
   -2.4232   -3.7181   -1.0088 C   0  0  0  0  0  0  0  0  0  0  0  0
   -3.1199   -4.3083    0.4746 S   0  0  0  0  0  0  0  0  0  0  0  0
   -4.2864   -5.2765   -0.3594 C   0  0  0  0  0  0  0  0  0  0  0  0
   -5.3173   -6.0443    0.3903 C   0  0  0  0  0  0  0  0  0  0  0  0
   -6.4436   -5.1219    0.8637 C   0  0  0  0  0  0  0  0  0  0  0  0
   -4.1345   -5.1392   -1.7061 C   0  0  0  0  0  0  0  0  0  0  0  0
   -5.1140   -5.9372   -2.8680 Cl  0  0  0  0  0  0  0  0  0  0  0  0
   -3.0769   -4.2637   -2.0779 C   0  0  0  0  0  0  0  0  0  0  0  0
   -2.7466   -3.8778   -3.7151 Cl  0  0  0  0  0  0  0  0  0  0  0  0
   -0.1267   -3.0283   -1.6769 C   0  0  0  0  0  0  0  0  0  0  0  0
    0.9888   -2.1572   -1.6371 C   0  0  0  0  0  0  0  0  0  0  0  0
    0.9359   -0.9846   -0.8634 C   0  0  0  0  0  0  0  0  0  0  0  0
    2.0636   -0.0705   -0.7974 C   0  0  0  0  0  0  0  0  0  0  0  0
    3.6586   -0.6273   -0.3805 S   0  0  0  0  0  0  0  0  0  0  0  0
    4.3335    0.9618   -0.5029 C   0  0  0  0  0  0  0  0  0  0  0  0
    5.7903    1.1933   -0.3042 C   0  0  0  0  0  0  0  0  0  0  0  0
    6.5883    0.7374   -1.5280 C   0  0  0  0  0  0  0  0  0  0  0  0
    3.3691    1.8581   -0.8534 C   0  0  0  0  0  0  0  0  0  0  0  0
    2.0806    1.2794   -1.0146 C   0  0  0  0  0  0  0  0  0  0  0  0
    0.7246    2.1951   -1.5225 Cl  0  0  0  0  0  0  0  0  0  0  0  0
    3.6546    3.5343   -1.0832 Cl  0  0  0  0  0  0  0  0  0  0  0  0
   -0.2338   -0.7532   -0.1509 C   0  0  0  0  0  0  0  0  0  0  0  0
   -0.5129    0.5656    0.9466 S   0  0  0  0  0  0  0  0  0  0  0  0
    2.0626   -2.6294   -2.4280 C   0  0  0  0  0  0  0  0  0  0  0  0
    1.8217   -3.8296   -3.0309 C   0  0  0  0  0  0  0  0  0  0  0  0
    0.2149   -4.4330   -2.6466 S   0  0  0  0  0  0  0  0  0  0  0  0
    2.7265   -4.5457   -3.8645 C   0  0  0  0  0  0  0  0  0  0  0  0
    4.3524   -3.9371   -4.0550 S   0  0  0  0  0  0  0  0  0  0  0  0
    4.8106   -5.2514   -5.1186 C   0  0  0  0  0  0  0  0  0  0  0  0
    3.7359   -6.0969   -5.2997 C   0  0  0  0  0  0  0  0  0  0  0  0
    2.5665   -5.7011   -4.5965 C   0  0  0  0  0  0  0  0  0  0  0  0
    1.4428   -6.4445   -4.6984 O   0  0  0  0  0  0  0  0  0  0  0  0
    3.7338   -7.5440   -6.2903 S   0  0  0  0  0  0  0  0  0  0  0  0
    6.1242   -5.3488   -5.6624 C   0  0  0  0  0  0  0  0  0  0  0  0
    6.5645   -6.6940   -6.6889 S   0  0  0  0  0  0  0  0  0  0  0  0
    8.1602   -6.0995   -6.8766 C   0  0  0  0  0  0  0  0  0  0  0  0
    8.3594   -4.9364   -6.1989 C   0  0  0  0  0  0  0  0  0  0  0  0
    7.2024   -4.4967   -5.5009 C   0  0  0  0  0  0  0  0  0  0  0  0
    7.2580   -3.3486   -4.7839 O   0  0  0  0  0  0  0  0  0  0  0  0
    9.8744   -4.0463   -6.1672 S   0  0  0  0  0  0  0  0  0  0  0  0
   -3.8460   10.8732    6.3648 H   0  0  0  0  0  0  0  0  0  0  0  0
   -1.7558   10.1617    3.3816 H   0  0  0  0  0  0  0  0  0  0  0  0
   -3.0579    7.4368    2.1935 H   0  0  0  0  0  0  0  0  0  0  0  0
   -5.2471    6.6096    7.2989 H   0  0  0  0  0  0  0  0  0  0  0  0
   -5.8377    3.6081    7.5387 H   0  0  0  0  0  0  0  0  0  0  0  0
   -6.1281    0.2935    4.2884 H   0  0  0  0  0  0  0  0  0  0  0  0
   -3.7574   -1.9803    2.8662 H   0  0  0  0  0  0  0  0  0  0  0  0
   -3.3827   -1.6347    0.6153 H   0  0  0  0  0  0  0  0  0  0  0  0
   -5.7237   -6.8159   -0.2656 H   0  0  0  0  0  0  0  0  0  0  0  0
   -4.8566   -6.5264    1.2548 H   0  0  0  0  0  0  0  0  0  0  0  0
   -6.0508   -4.3490    1.5206 H   0  0  0  0  0  0  0  0  0  0  0  0
   -6.9221   -4.6435    0.0129 H   0  0  0  0  0  0  0  0  0  0  0  0
   -7.1906   -5.6940    1.4067 H   0  0  0  0  0  0  0  0  0  0  0  0
    5.9527    2.2587   -0.1336 H   0  0  0  0  0  0  0  0  0  0  0  0
    6.1308    0.6422    0.5747 H   0  0  0  0  0  0  0  0  0  0  0  0
    7.6482    0.9164   -1.3704 H   0  0  0  0  0  0  0  0  0  0  0  0
    6.2702    1.2853   -2.4115 H   0  0  0  0  0  0  0  0  0  0  0  0
    6.4359   -0.3252   -1.7031 H   0  0  0  0  0  0  0  0  0  0  0  0
    2.9892   -2.1001   -2.5543 H   0  0  0  0  0  0  0  0  0  0  0  0
    0.7155   -6.0432   -4.2069 H   0  0  0  0  0  0  0  0  0  0  0  0
    2.4589   -7.8166   -6.0122 H   0  0  0  0  0  0  0  0  0  0  0  0
    8.8674   -6.6355   -7.4750 H   0  0  0  0  0  0  0  0  0  0  0  0
    6.4109   -3.1573   -4.3671 H   0  0  0  0  0  0  0  0  0  0  0  0
    9.3960   -3.0935   -5.3720 H   0  0  0  0  0  0  0  0  0  0  0  0
  1  2  1  0  0  0  0
  2  3  1  0  0  0  0
  3  4  2  0  0  0  0
  4  5  1  0  0  0  0
  5  6  1  0  0  0  0
  4  7  1  0  0  0  0
  3  8  1  0  0  0  0
  8  9  1  0  0  0  0
  9 10  1  0  0  0  0
 10 11  2  0  0  0  0
 11 12  1  0  0  0  0
 12 13  1  0  0  0  0
 11 14  1  0  0  0  0
 10 15  1  0  0  0  0
 15 16  1  0  0  0  0
 16 17  1  0  0  0  0
 17 18  2  0  0  0  0
 18 19  1  0  0  0  0
 19 20  1  0  0  0  0
 18 21  1  0  0  0  0
 17 22  1  0  0  0  0
 22 23  2  0  0  0  0
 23 24  1  0  0  0  0
 24 25  2  0  0  0  0
 25 26  1  0  0  0  0
 26 27  1  0  0  0  0
 27 28  1  0  0  0  0
 28 29  1  0  0  0  0
 29 30  1  0  0  0  0
 28 31  2  0  0  0  0
 31 32  1  0  0  0  0
 31 33  1  0  0  0  0
 33 34  1  0  0  0  0
 25 35  1  0  0  0  0
 35 36  2  0  0  0  0
 36 37  1  0  0  0  0
 37 38  1  0  0  0  0
 38 39  1  0  0  0  0
 39 40  1  0  0  0  0
 40 41  1  0  0  0  0
 41 42  1  0  0  0  0
 40 43  2  0  0  0  0
 43 44  1  0  0  0  0
 44 45  1  0  0  0  0
 43 46  1  0  0  0  0
 37 47  2  0  0  0  0
 47 48  1  0  0  0  0
 36 49  1  0  0  0  0
 49 50  2  0  0  0  0
 50 51  1  0  0  0  0
 50 52  1  0  0  0  0
 52 53  1  0  0  0  0
 53 54  1  0  0  0  0
 54 55  2  0  0  0  0
 55 56  1  0  0  0  0
 56 57  1  0  0  0  0
 55 58  1  0  0  0  0
 54 59  1  0  0  0  0
 59 60  1  0  0  0  0
 60 61  1  0  0  0  0
 61 62  2  0  0  0  0
 62 63  1  0  0  0  0
 63 64  1  0  0  0  0
 62 65  1  0  0  0  0
  5  1  2  0  0  0  0
 12  8  2  0  0  0  0
 19 15  2  0  0  0  0
 48 22  1  0  0  0  0
 56 52  2  0  0  0  0
 63 59  2  0  0  0  0
 47 24  1  0  0  0  0
 33 26  2  0  0  0  0
 51 35  1  0  0  0  0
 44 38  2  0  0  0  0
  1 66  1  0  0  0  0
  6 67  1  0  0  0  0
  7 68  1  0  0  0  0
 13 69  1  0  0  0  0
 14 70  1  0  0  0  0
 20 71  1  0  0  0  0
 21 72  1  0  0  0  0
 23 73  1  0  0  0  0
 29 74  1  0  0  0  0
 29 75  1  0  0  0  0
 30 76  1  0  0  0  0
 30 77  1  0  0  0  0
 30 78  1  0  0  0  0
 41 79  1  0  0  0  0
 41 80  1  0  0  0  0
 42 81  1  0  0  0  0
 42 82  1  0  0  0  0
 42 83  1  0  0  0  0
 49 84  1  0  0  0  0
 57 85  1  0  0  0  0
 58 86  1  0  0  0  0
 61 87  1  0  0  0  0
 64 88  1  0  0  0  0
 65 89  1  0  0  0  0
M  END
