
  xtb     02282221593D
 energy: -150.462707298084 gnorm: 0.000618504387 xtb: 6.4.1 (unknown)
 78 87  0     0  0            999 V2000
   -0.1257   12.6695    6.3215 C   0  0  0  0  0  0  0  0  0  0  0  0
    1.1934   12.0478    5.4055 S   0  0  0  0  0  0  0  0  0  0  0  0
    0.4123   10.4989    5.1719 C   0  0  0  0  0  0  0  0  0  0  0  0
   -0.8035   10.5100    5.8195 C   0  0  0  0  0  0  0  0  0  0  0  0
   -1.1135   11.7459    6.4590 C   0  0  0  0  0  0  0  0  0  0  0  0
   -2.2566   11.9646    7.1348 O   0  0  0  0  0  0  0  0  0  0  0  0
   -1.9904    9.1914    5.8640 S   0  0  0  0  0  0  0  0  0  0  0  0
    1.0159    9.4504    4.4218 C   0  0  0  0  0  0  0  0  0  0  0  0
    0.1857    7.9245    4.1888 S   0  0  0  0  0  0  0  0  0  0  0  0
    1.4805    7.2790    3.2171 C   0  0  0  0  0  0  0  0  0  0  0  0
    2.4916    8.2080    3.0911 C   0  0  0  0  0  0  0  0  0  0  0  0
    2.2332    9.4262    3.7654 C   0  0  0  0  0  0  0  0  0  0  0  0
    3.1559   10.4152    3.7136 O   0  0  0  0  0  0  0  0  0  0  0  0
    3.9788    7.9589    2.1932 S   0  0  0  0  0  0  0  0  0  0  0  0
    1.3630    5.9695    2.6922 C   0  0  0  0  0  0  0  0  0  0  0  0
    2.6400    5.2504    1.7181 S   0  0  0  0  0  0  0  0  0  0  0  0
    1.7058    3.8129    1.5413 C   0  0  0  0  0  0  0  0  0  0  0  0
    1.7410    2.5527    0.9424 C   0  0  0  0  0  0  0  0  0  0  0  0
    0.5227    1.9182    1.2695 C   0  0  0  0  0  0  0  0  0  0  0  0
   -0.2349    2.7420    2.0605 N   0  0  0  0  0  0  0  0  0  0  0  0
   -1.5756    2.4877    2.5162 C   0  0  0  0  0  0  0  0  0  0  0  0
   -2.6141    2.9304    1.4869 C   0  0  0  0  0  0  0  0  0  0  0  0
    0.4682    3.9084    2.2161 C   0  0  0  0  0  0  0  0  0  0  0  0
    0.2801    5.1277    2.8644 C   0  0  0  0  0  0  0  0  0  0  0  0
    0.4003    0.6364    0.7294 C   0  0  0  0  0  0  0  0  0  0  0  0
    1.5174    0.2918   -0.0023 C   0  0  0  0  0  0  0  0  0  0  0  0
    2.7456    1.5460   -0.0368 S   0  0  0  0  0  0  0  0  0  0  0  0
    1.7377   -0.9242   -0.6953 C   0  0  0  0  0  0  0  0  0  0  0  0
    0.5423   -2.1921   -0.7397 S   0  0  0  0  0  0  0  0  0  0  0  0
    1.5593   -3.2220   -1.7227 C   0  0  0  0  0  0  0  0  0  0  0  0
    2.7455   -2.5744   -2.0036 C   0  0  0  0  0  0  0  0  0  0  0  0
    2.8534   -1.2910   -1.4206 C   0  0  0  0  0  0  0  0  0  0  0  0
    3.9197   -0.4785   -1.5508 O   0  0  0  0  0  0  0  0  0  0  0  0
    4.1073   -3.2103   -2.9455 S   0  0  0  0  0  0  0  0  0  0  0  0
    1.0810   -4.5048   -2.0899 C   0  0  0  0  0  0  0  0  0  0  0  0
    2.0634   -5.6452   -3.0124 S   0  0  0  0  0  0  0  0  0  0  0  0
    0.7979   -6.8114   -2.9475 C   0  0  0  0  0  0  0  0  0  0  0  0
    0.4806   -8.1060   -3.3585 C   0  0  0  0  0  0  0  0  0  0  0  0
   -0.8232   -8.3695   -2.8897 C   0  0  0  0  0  0  0  0  0  0  0  0
   -1.2947   -7.2856   -2.1962 N   0  0  0  0  0  0  0  0  0  0  0  0
   -2.6153   -7.1363   -1.6443 C   0  0  0  0  0  0  0  0  0  0  0  0
   -3.5874   -6.5465   -2.6645 C   0  0  0  0  0  0  0  0  0  0  0  0
   -0.3210   -6.3232   -2.2399 C   0  0  0  0  0  0  0  0  0  0  0  0
   -0.1554   -5.0229   -1.7605 C   0  0  0  0  0  0  0  0  0  0  0  0
   -1.2936   -9.6447   -3.2234 C   0  0  0  0  0  0  0  0  0  0  0  0
   -0.3573  -10.3534   -3.9402 C   0  0  0  0  0  0  0  0  0  0  0  0
    1.1283   -9.4539   -4.2191 S   0  0  0  0  0  0  0  0  0  0  0  0
   -0.4840  -11.6807   -4.4445 C   0  0  0  0  0  0  0  0  0  0  0  0
    0.8149  -12.4459   -5.3165 S   0  0  0  0  0  0  0  0  0  0  0  0
   -0.0992  -13.8848   -5.5267 C   0  0  0  0  0  0  0  0  0  0  0  0
   -1.3327  -13.7850   -4.9609 C   0  0  0  0  0  0  0  0  0  0  0  0
   -1.5662  -12.5304   -4.3386 C   0  0  0  0  0  0  0  0  0  0  0  0
   -2.7220  -12.1976   -3.7103 O   0  0  0  0  0  0  0  0  0  0  0  0
   -2.5726  -15.0501   -4.9592 S   0  0  0  0  0  0  0  0  0  0  0  0
   -0.0871   13.6678    6.7021 H   0  0  0  0  0  0  0  0  0  0  0  0
   -2.7939   11.1571    7.0899 H   0  0  0  0  0  0  0  0  0  0  0  0
   -1.2571    8.3351    6.5748 H   0  0  0  0  0  0  0  0  0  0  0  0
    2.8595   11.1944    4.1965 H   0  0  0  0  0  0  0  0  0  0  0  0
    4.4390    9.1767    2.4740 H   0  0  0  0  0  0  0  0  0  0  0  0
   -1.7248    3.0268    3.4556 H   0  0  0  0  0  0  0  0  0  0  0  0
   -1.6725    1.4158    2.7102 H   0  0  0  0  0  0  0  0  0  0  0  0
   -2.5195    3.9961    1.2926 H   0  0  0  0  0  0  0  0  0  0  0  0
   -2.4689    2.3938    0.5524 H   0  0  0  0  0  0  0  0  0  0  0  0
   -3.6160    2.7289    1.8558 H   0  0  0  0  0  0  0  0  0  0  0  0
   -0.5885    5.4141    3.4300 H   0  0  0  0  0  0  0  0  0  0  0  0
   -0.4405   -0.0234    0.8460 H   0  0  0  0  0  0  0  0  0  0  0  0
    4.5746   -0.9084   -2.1218 H   0  0  0  0  0  0  0  0  0  0  0  0
    3.4014   -3.6115   -3.9996 H   0  0  0  0  0  0  0  0  0  0  0  0
   -2.9620   -8.1214   -1.3214 H   0  0  0  0  0  0  0  0  0  0  0  0
   -2.5484   -6.4847   -0.7686 H   0  0  0  0  0  0  0  0  0  0  0  0
   -3.2465   -5.5651   -2.9860 H   0  0  0  0  0  0  0  0  0  0  0  0
   -3.6546   -7.1931   -3.5362 H   0  0  0  0  0  0  0  0  0  0  0  0
   -4.5758   -6.4474   -2.2245 H   0  0  0  0  0  0  0  0  0  0  0  0
   -0.8812   -4.4616   -1.2004 H   0  0  0  0  0  0  0  0  0  0  0  0
   -2.2547  -10.0483   -2.9695 H   0  0  0  0  0  0  0  0  0  0  0  0
    0.3244  -14.7161   -6.0529 H   0  0  0  0  0  0  0  0  0  0  0  0
   -3.3332  -12.9442   -3.7640 H   0  0  0  0  0  0  0  0  0  0  0  0
   -1.8629  -15.9256   -5.6571 H   0  0  0  0  0  0  0  0  0  0  0  0
  1  2  1  0  0  0  0
  2  3  1  0  0  0  0
  3  4  2  0  0  0  0
  4  5  1  0  0  0  0
  5  6  1  0  0  0  0
  4  7  1  0  0  0  0
  3  8  1  0  0  0  0
  8  9  1  0  0  0  0
  9 10  1  0  0  0  0
 10 11  2  0  0  0  0
 11 12  1  0  0  0  0
 12 13  1  0  0  0  0
 11 14  1  0  0  0  0
 10 15  1  0  0  0  0
 15 16  1  0  0  0  0
 16 17  1  0  0  0  0
 17 18  1  0  0  0  0
 18 19  2  0  0  0  0
 19 20  1  0  0  0  0
 20 21  1  0  0  0  0
 21 22  1  0  0  0  0
 20 23  1  0  0  0  0
 23 24  1  0  0  0  0
 19 25  1  0  0  0  0
 25 26  2  0  0  0  0
 26 27  1  0  0  0  0
 26 28  1  0  0  0  0
 28 29  1  0  0  0  0
 29 30  1  0  0  0  0
 30 31  2  0  0  0  0
 31 32  1  0  0  0  0
 32 33  1  0  0  0  0
 31 34  1  0  0  0  0
 30 35  1  0  0  0  0
 35 36  1  0  0  0  0
 36 37  1  0  0  0  0
 37 38  1  0  0  0  0
 38 39  2  0  0  0  0
 39 40  1  0  0  0  0
 40 41  1  0  0  0  0
 41 42  1  0  0  0  0
 40 43  1  0  0  0  0
 43 44  1  0  0  0  0
 39 45  1  0  0  0  0
 45 46  2  0  0  0  0
 46 47  1  0  0  0  0
 46 48  1  0  0  0  0
 48 49  1  0  0  0  0
 49 50  1  0  0  0  0
 50 51  2  0  0  0  0
 51 52  1  0  0  0  0
 52 53  1  0  0  0  0
 51 54  1  0  0  0  0
  5  1  2  0  0  0  0
 12  8  2  0  0  0  0
 24 15  2  0  0  0  0
 32 28  2  0  0  0  0
 44 35  2  0  0  0  0
 52 48  2  0  0  0  0
 23 17  2  0  0  0  0
 43 37  2  0  0  0  0
 27 18  1  0  0  0  0
 47 38  1  0  0  0  0
  1 55  1  0  0  0  0
  6 56  1  0  0  0  0
  7 57  1  0  0  0  0
 13 58  1  0  0  0  0
 14 59  1  0  0  0  0
 21 60  1  0  0  0  0
 21 61  1  0  0  0  0
 22 62  1  0  0  0  0
 22 63  1  0  0  0  0
 22 64  1  0  0  0  0
 24 65  1  0  0  0  0
 25 66  1  0  0  0  0
 33 67  1  0  0  0  0
 34 68  1  0  0  0  0
 41 69  1  0  0  0  0
 41 70  1  0  0  0  0
 42 71  1  0  0  0  0
 42 72  1  0  0  0  0
 42 73  1  0  0  0  0
 44 74  1  0  0  0  0
 45 75  1  0  0  0  0
 50 76  1  0  0  0  0
 53 77  1  0  0  0  0
 54 78  1  0  0  0  0
M  END
