100

C         13.11510        9.14420        2.88780
S         12.60080        7.49430        3.04800
C         10.96220        8.01680        3.19470
C          9.66220        7.52850        3.36440
C          8.81140        8.64960        3.38630
N          9.54740        9.79430        3.21660
C          9.04810       11.14190        3.27200
C          9.01870       11.67370        4.70420
C         10.86170        9.41650        3.11690
C         12.10570       10.05380        2.94010
C          7.45830        8.32440        3.54340
C          7.27060        6.96250        3.63640
S          8.77710        6.05910        3.53850
C          6.03610        6.26520        3.76200
S          6.01910        4.50680        3.71250
C          4.29860        4.50760        3.82390
C          3.20010        3.64730        3.80900
C          2.04920        4.45830        3.89230
N          2.41790        5.77590        3.98810
C          1.52490        6.90370        3.97490
C          1.15020        7.30820        2.54990
C          3.78660        5.81840        3.91560
C          4.77410        6.80830        3.88130
C          0.84970        3.74370        3.81710
C          1.07810        2.39240        3.67360
S          2.78910        1.97810        3.66290
C          0.11280        1.37590        3.44260
S          0.58120       -0.29480        3.27930
C         -1.02950       -0.76740        2.82310
C         -1.88060        0.31840        2.87630
C         -1.24460        1.52890        3.22030
O         -1.89300        2.71430        3.30790
S         -3.61060        0.29540        2.48100
C         -1.27900       -2.09170        2.38830
S         -2.70800       -2.56730        1.50690
C         -2.07560       -4.16060        1.19870
C         -0.82930       -4.29710        1.77610
C         -0.37800       -3.14010        2.44360
O          0.81530       -3.01510        3.05780
S          0.22000       -5.72300        1.67810
C         -2.78790       -5.05380        0.35190
S         -3.88080       -4.36220       -0.84850
C         -4.18950       -5.93350       -1.48220
C         -4.87980       -6.58200       -2.50540
C         -4.59200       -7.95620       -2.38350
N         -3.74160       -8.15820       -1.32780
C         -3.29920       -9.43220       -0.82500
C         -4.28760      -10.01080        0.18580
C         -3.49710       -6.93180       -0.76520
C         -2.70360       -6.42830        0.27140
C         -5.18530       -8.74170       -3.37920
C         -5.91400       -7.97780       -4.26160
S         -5.89580       -6.26160       -3.86200
C         -6.61070       -8.41270       -5.42070
S         -6.63990      -10.12520       -5.83730
C         -7.54830       -9.77210       -7.26090
C         -8.12410      -10.38570       -8.37750
C         -8.71340       -9.36210       -9.14080
N         -8.53370       -8.15490       -8.51800
C         -8.88740       -6.86050       -9.03800
C         -7.75780       -6.26450       -9.87670
C         -7.80770       -8.39340       -7.38060
C         -7.27620       -7.62930       -6.33460
C         -9.33310       -9.83310      -10.31540
C         -9.20810      -11.18250      -10.42420
S         -8.34330      -11.92970       -9.11810
H         14.16170        9.33840        2.76230
H          8.04000       11.15100        2.84770
H          9.69100       11.77170        2.65080
H          8.38160       11.04690        5.32390
H          8.63410       12.68990        4.71940
H         10.02080       11.67070        5.12640
H         12.25420       11.11530        2.85770
H          6.65340        9.03480        3.58010
H          0.62550        6.63390        4.53540
H          2.01760        7.73530        4.48610
H          2.04280        7.57010        1.98630
H          0.48070        8.16380        2.56670
H          0.65310        6.48290        2.04610
H          4.58980        7.86550        3.92970
H         -0.13790        4.16260        3.84050
H         -2.83120        2.55500        3.12160
H         -3.92870       -0.75690        3.23040
H          1.33590       -3.81900        2.91430
H         -0.03790       -5.99060        0.39850
H         -3.18730      -10.11350       -1.67280
H         -2.32040       -9.29500       -0.35740
H         -4.40000       -9.33630        1.03140
H         -5.26130      -10.14940       -0.27830
H         -3.93210      -10.97130        0.54820
H         -2.13230       -7.02750        0.95640
H         -5.09340       -9.80820       -3.47730
H         -9.11420       -6.20280       -8.19420
H         -9.78970       -6.97070       -9.64540
H         -6.86050       -6.15290       -9.27260
H         -7.52940       -6.91500      -10.71790
H         -8.04810       -5.28870      -10.25630
H         -7.35260       -6.56160       -6.23470
H         -9.83810       -9.22030      -11.03980
H         -9.57690      -11.80990      -11.21100
