78

C         -0.12570       12.66950        6.32150
S          1.19340       12.04780        5.40550
C          0.41230       10.49890        5.17190
C         -0.80350       10.51000        5.81950
C         -1.11350       11.74590        6.45900
O         -2.25660       11.96460        7.13480
S         -1.99040        9.19140        5.86400
C          1.01590        9.45040        4.42180
S          0.18570        7.92450        4.18880
C          1.48050        7.27900        3.21710
C          2.49160        8.20800        3.09110
C          2.23320        9.42620        3.76540
O          3.15590       10.41520        3.71360
S          3.97880        7.95890        2.19320
C          1.36300        5.96950        2.69220
S          2.64000        5.25040        1.71810
C          1.70580        3.81290        1.54130
C          1.74100        2.55270        0.94240
C          0.52270        1.91820        1.26950
N         -0.23490        2.74200        2.06050
C         -1.57560        2.48770        2.51620
C         -2.61410        2.93040        1.48690
C          0.46820        3.90840        2.21610
C          0.28010        5.12770        2.86440
C          0.40030        0.63640        0.72940
C          1.51740        0.29180       -0.00230
S          2.74560        1.54600       -0.03680
C          1.73770       -0.92420       -0.69530
S          0.54230       -2.19210       -0.73970
C          1.55930       -3.22200       -1.72270
C          2.74550       -2.57440       -2.00360
C          2.85340       -1.29100       -1.42060
O          3.91970       -0.47850       -1.55080
S          4.10730       -3.21030       -2.94550
C          1.08100       -4.50480       -2.08990
S          2.06340       -5.64520       -3.01240
C          0.79790       -6.81140       -2.94750
C          0.48060       -8.10600       -3.35850
C         -0.82320       -8.36950       -2.88970
N         -1.29470       -7.28560       -2.19620
C         -2.61530       -7.13630       -1.64430
C         -3.58740       -6.54650       -2.66450
C         -0.32100       -6.32320       -2.23990
C         -0.15540       -5.02290       -1.76050
C         -1.29360       -9.64470       -3.22340
C         -0.35730      -10.35340       -3.94020
S          1.12830       -9.45390       -4.21910
C         -0.48400      -11.68070       -4.44450
S          0.81490      -12.44590       -5.31650
C         -0.09920      -13.88480       -5.52670
C         -1.33270      -13.78500       -4.96090
C         -1.56620      -12.53040       -4.33860
O         -2.72200      -12.19760       -3.71030
S         -2.57260      -15.05010       -4.95920
H         -0.08710       13.66780        6.70210
H         -2.79390       11.15710        7.08990
H         -1.25710        8.33510        6.57480
H          2.85950       11.19440        4.19650
H          4.43900        9.17670        2.47400
H         -1.72480        3.02680        3.45560
H         -1.67250        1.41580        2.71020
H         -2.51950        3.99610        1.29260
H         -2.46890        2.39380        0.55240
H         -3.61600        2.72890        1.85580
H         -0.58850        5.41410        3.43000
H         -0.44050       -0.02340        0.84600
H          4.57460       -0.90840       -2.12180
H          3.40140       -3.61150       -3.99960
H         -2.96200       -8.12140       -1.32140
H         -2.54840       -6.48470       -0.76860
H         -3.24650       -5.56510       -2.98600
H         -3.65460       -7.19310       -3.53620
H         -4.57580       -6.44740       -2.22450
H         -0.88120       -4.46160       -1.20040
H         -2.25470      -10.04830       -2.96950
H          0.32440      -14.71610       -6.05290
H         -3.33320      -12.94420       -3.76400
H         -1.86290      -15.92560       -5.65710
