155

C          9.81530       -1.07820       10.76620
C          9.76520       -0.53880        9.53130
C          8.64530       -0.99290        8.77520
C          8.31320       -0.68900        7.44660
C          9.10750        0.23600        6.65270
S          9.40350        1.86470        7.18400
C         10.31270        2.24740        5.76250
C         10.85750        3.61410        5.53410
C          9.83880        4.49110        4.80210
C         10.36980        1.16770        4.93300
Cl        11.19120        1.16340        3.42680
C          9.69010        0.02520        5.43430
Cl         9.68700       -1.47850        4.61250
C          7.19090       -1.31320        6.91660
C          6.39660       -2.22580        7.65440
C          6.72230       -2.52130        8.98850
C          5.91770       -3.43320        9.78520
S          5.56760       -5.05050        9.24680
C          4.67450       -5.42200       10.68280
C          4.09710       -6.77560       10.90720
C          5.14600       -7.72980       11.48320
C          4.65930       -4.34720       11.51980
C          5.35750       -3.21770       11.01370
Cl         5.39830       -1.71950       11.84410
Cl         3.86810       -4.33150       13.04210
C          7.84940       -1.89990        9.51490
S          8.51340       -2.16430       11.10190
C          5.29590       -2.69710        6.89810
C          5.23520       -2.17210        5.63980
S          6.54270       -1.05510        5.32430
C          4.26310       -2.45610        4.63200
C          3.31620       -3.43900        4.65720
C          2.50310       -3.46920        3.49940
C          1.46830       -4.36940        3.19030
C          1.12290       -5.45700        4.09140
S          2.33080       -6.58240        4.63970
C          1.18240       -7.48730        5.56700
C          1.61130       -8.64970        6.39230
C          2.36420       -8.18460        7.64090
C         -0.05690       -6.93360        5.45250
Cl        -1.45620       -7.54320        6.23620
C         -0.09670       -5.78730        4.61220
Cl        -1.52800       -4.87920        4.36920
C          0.81360       -4.19060        1.97950
C          1.13920       -3.14590        1.07700
C          2.17240       -2.24400        1.38650
C          2.54760       -1.17780        0.47210
S          2.96840       -1.51590       -1.18170
C          3.29780        0.14800       -1.52220
C          3.79520        0.58280       -2.85650
C          5.32460        0.54590       -2.90660
C          3.09350        0.90720       -0.40920
C          2.66590        0.16120        0.72180
Cl         2.26220        0.90440        2.21190
Cl         3.31370        2.60770       -0.36110
C          2.83680       -2.43360        2.59140
S          4.18710       -1.50200        3.16870
C          0.31390       -3.16960       -0.07150
C         -0.57870       -4.20300       -0.07380
S         -0.45190       -5.20640        1.35090
C         -1.56300       -4.49440       -1.05670
S         -1.83360       -3.46290       -2.43220
C         -3.13910       -4.46010       -3.01310
C         -3.33950       -5.52160       -2.15560
C         -2.44780       -5.55250       -1.05790
O         -2.45030       -6.48820       -0.09100
S         -4.61350       -6.76170       -2.28480
C         -3.84310       -4.04740       -4.18790
S         -3.94040       -2.33580       -4.52980
C         -4.84740       -2.61620       -5.98920
C         -5.04710       -3.96420       -6.19360
C         -4.46880       -4.77510       -5.17930
O         -4.54830       -6.12040       -5.27960
S         -5.98660       -4.67570       -7.48780
C         -5.29560       -1.49570       -6.74470
S         -5.51000        0.04360       -5.95990
C         -6.06170        0.79500       -7.42710
C         -6.03470       -0.11170       -8.46590
C         -5.60060       -1.40490       -8.08930
O         -5.42780       -2.42300       -8.95010
S         -6.44990        0.20790      -10.15940
C         -6.44480        2.16860       -7.41470
C         -7.20240        2.86010       -8.31640
C         -7.40200        4.21770       -7.96320
C         -8.07750        5.20810       -8.69470
C         -8.71660        4.90420       -9.96480
S         -9.89590        3.63310      -10.10320
C        -10.13410        3.92840      -11.79170
C        -11.04880        3.07450      -12.59760
C        -10.36700        1.75800      -12.97880
C         -9.33370        4.94860      -12.21010
Cl        -9.27930        5.52330      -13.82630
C         -8.53410        5.50870      -11.17720
Cl        -7.39560        6.75580      -11.47030
C         -8.10210        6.48670       -8.14990
C         -7.47890        6.81250       -6.92140
C         -6.79880        5.82380       -6.19400
C         -6.14710        6.11570       -4.92680
S         -4.95000        7.36960       -4.79010
C         -4.67590        7.03550       -3.11370
C         -3.71770        7.84490       -2.31200
C         -4.35260        9.16390       -1.86490
C         -5.48260        6.01950       -2.69690
C         -6.31230        5.49050       -3.72250
Cl        -7.45600        4.24860       -3.42880
Cl        -5.50760        5.41200       -1.09210
C         -6.77250        4.54580       -6.73810
S         -5.94080        3.17370       -6.06860
C         -7.69780        8.17580       -6.56800
C         -8.44580        8.83730       -7.47450
S         -8.93220        7.86310       -8.81670
H         10.54890       -0.90820       11.52990
H         10.49430        0.15330        9.15240
H         11.76620        3.53370        4.93430
H         11.10870        4.06960        6.49320
H          9.58830        4.05270        3.83960
H          8.92840        4.58290        5.38950
H         10.25030        5.48330        4.63730
H          3.72600       -7.17360        9.96180
H          3.26190       -6.68680       11.60430
H          4.70810       -8.71100       11.64530
H          5.98300       -7.82900       10.79630
H          5.51790       -7.35300       12.43250
H          4.56920       -3.38830        7.28130
H          3.20900       -4.12720        5.47430
H          0.72500       -9.21540        6.68380
H          2.26080       -9.29760        5.80030
H          3.25220       -7.62400        7.35580
H          2.66590       -9.04350        8.23470
H          1.72520       -7.54600        8.24660
H          3.44930        1.60100       -3.04550
H          3.38840       -0.07490       -3.62620
H          5.68410       -0.46370       -2.72230
H          5.74200        1.20640       -2.15110
H          5.67380        0.86850       -3.88370
H          0.36670       -2.45040       -0.86860
H         -3.18690       -7.10120       -0.23350
H         -5.63470       -5.91370       -2.42200
H         -4.24490       -6.54780       -4.46150
H         -5.83090       -5.91220       -7.01280
H         -5.71000       -2.15000       -9.83560
H         -5.83630        1.38700      -10.23750
H         -7.64980        2.41480       -9.18460
H        -11.33020        3.61850      -13.50070
H        -11.95080        2.86150      -12.02110
H         -9.47340        1.95270      -13.56660
H        -10.08200        1.20740      -12.08540
H        -11.04350        1.14360      -13.56640
H         -2.82930        8.05500       -2.91030
H         -3.42110        7.26520       -1.43620
H         -4.64680        9.75350       -2.73010
H         -5.23370        8.97140       -1.25800
H         -3.64280        9.73840       -1.27610
H         -7.31350        8.62380       -5.67040
H         -8.75610        9.86360       -7.44880
