221

C          3.50260       -3.98800        8.65870
C          4.29570       -3.75490        7.59290
C          3.65910       -4.05580        6.35370
C          4.18920       -3.95600        5.05610
C          5.46580       -3.30220        4.82450
S          6.73780       -4.02330        3.88620
C          7.76720       -2.64190        4.07980
C          9.11320       -2.59220        3.44580
C          9.01560       -2.23350        1.96130
C          7.13950       -1.68150        4.81610
Cl         7.82110       -0.15270        5.19370
C          5.84020       -2.05720        5.25050
Cl         4.83400       -1.01300        6.16910
C          3.40600       -4.43750        4.01570
C          2.09240       -4.92550        4.21710
C          1.53250       -4.95480        5.50380
C          0.15420       -5.37200        5.70010
S         -0.42300       -6.90330        5.11240
C         -2.03890       -6.58980        5.64830
C         -3.13600       -7.55490        5.36340
C         -3.52140       -7.51850        3.88240
C         -2.10780       -5.36880        6.24910
C         -0.86620       -4.67660        6.28590
Cl        -0.70850       -3.09060        6.91550
Cl        -3.54730       -4.70200        6.90410
C          2.34400       -4.53940        6.55110
S          1.93320       -4.58050        8.24090
C          1.45330       -5.23880        2.99480
C          2.23090       -5.02130        1.89780
S          3.82390       -4.42820        2.32300
C          1.80910       -5.16850        0.54470
C          2.49400       -4.93890       -0.61030
C          1.69560       -5.07690       -1.77460
C          2.03580       -4.77390       -3.10460
C          3.36490       -4.29380       -3.45070
S          4.31960       -5.09080       -4.66490
C          5.64440       -3.99840       -4.45070
C          6.91520       -4.16770       -5.20740
C          7.84720       -5.15270       -4.49740
C          5.34860       -3.07730       -3.49070
Cl         6.41980       -1.83170       -2.99260
C          4.05440       -3.23570       -2.92740
Cl         3.41300       -2.14120       -1.77340
C          1.02880       -4.88110       -4.05390
C         -0.28520       -5.31280       -3.74460
C         -0.61870       -5.65990       -2.42210
C         -1.96420       -6.04920       -2.03490
S         -3.34960       -5.10950       -2.51910
C         -4.43730       -6.06870       -1.57490
C         -5.89590       -5.76980       -1.52910
C         -6.17290       -4.26950       -1.53050
C         -3.75720       -7.06930       -0.94800
C         -2.35960       -7.06480       -1.20700
Cl        -1.32370       -8.28490       -0.59500
Cl        -4.49410       -8.23200        0.07730
C          0.37760       -5.49860       -1.46580
S          0.15060       -5.64600        0.24920
C         -1.15600       -5.18310       -4.85000
C         -0.57620       -4.59540       -5.94030
S          1.13960       -4.33040       -5.70390
C         -1.28820       -3.92680       -6.98420
C         -2.64960       -3.82590       -7.07950
C         -3.08020       -2.67170       -7.77530
C         -4.36580       -2.09460       -7.76690
C         -5.55340       -2.79420       -7.31120
S         -5.62300       -3.68080       -5.81570
C         -7.29970       -4.06330       -6.02260
C         -8.02020       -4.91280       -5.03530
C         -7.58810       -6.37610       -5.15110
C         -7.76240       -3.53460       -7.18950
Cl        -9.37350       -3.71110       -7.75140
C         -6.78190       -2.80420       -7.91390
Cl        -7.11180       -2.07690       -9.42930
C         -4.42660       -0.73560       -8.05510
C         -3.31130        0.02020       -8.49190
C         -2.09210       -0.62920       -8.76010
C         -0.93330        0.02410       -9.33990
S         -0.31800        1.56220       -8.81210
C          1.00040        1.51520       -9.93040
C          2.02290        2.59620       -9.97040
C          3.17960        2.28770       -9.01640
C          0.95830        0.36590      -10.66170
C         -0.13110       -0.48100      -10.32950
Cl        -0.43430       -1.94890      -11.16010
Cl         2.09830       -0.03310      -11.87990
C         -1.98990       -1.94060       -8.30550
S         -0.47540       -2.73890       -7.98210
C         -3.52200        1.41180       -8.31020
C         -4.70700        1.71080       -7.71090
S         -5.74770        0.30080       -7.57160
C         -4.89560        2.80470       -6.78940
S         -3.59430        2.90100       -5.62900
C         -4.52920        3.89910       -4.55770
C         -5.74420        4.19640       -5.12210
C         -5.96820        3.55570       -6.37920
O         -7.11160        3.64810       -7.08700
S         -7.00530        5.17200       -4.36300
C         -4.01430        4.03710       -3.22180
C         -3.93090        5.07320       -2.34450
C         -3.27950        4.72590       -1.12510
C         -2.90220        5.57270       -0.06510
C         -3.26700        6.98010       -0.06950
S         -4.93000        7.46400       -0.25140
C         -4.53910        9.14580       -0.13560
C         -5.59800       10.19160       -0.16620
C         -6.15910       10.44170        1.23580
C         -3.19740        9.30560        0.03800
Cl        -2.43030       10.83230        0.18990
C         -2.47200        8.08300        0.07100
Cl        -0.76320        8.03680        0.18190
C         -2.16270        5.00360        0.96670
C         -1.84190        3.62250        1.00270
C         -2.20020        2.77720       -0.05650
C         -1.83140        1.37000       -0.08690
S         -3.03580        0.15520       -0.41220
C         -1.88280       -1.12890       -0.33130
C         -2.27920       -2.55130       -0.51760
C         -2.51120       -3.25130        0.82320
C         -0.64230       -0.63430       -0.05970
C         -0.60740        0.77930        0.08110
Cl         0.86300        1.62720        0.34560
Cl         0.75170       -1.62270        0.06440
C         -2.90200        3.36260       -1.10140
S         -3.33070        2.55410       -2.57200
C         -1.11030        3.27540        2.15770
C         -0.79410        4.34190        2.94830
S         -1.51390        5.82480        2.36250
C          0.16960        4.27940        4.00350
C          1.07720        3.26640        4.10450
C          2.03040        3.45580        5.12850
C          3.11160        2.61220        5.42750
C          3.21230        1.37920        4.65170
S          4.33270        1.18960        3.33850
C          3.54800       -0.25130        2.77440
C          3.96800       -0.90670        1.50570
C          5.46680       -1.17380        1.44210
C          2.50590       -0.57020        3.59230
Cl         1.46050       -1.91240        3.37140
C          2.30710        0.35800        4.64900
Cl         1.04830        0.19950        5.80590
C          3.98750        3.04290        6.40660
C          3.78970        4.25320        7.12080
C          2.67660        5.06850        6.85320
C          2.42260        6.27680        7.62040
S          2.14950        7.80750        6.84500
C          1.92440        8.61980        8.35610
C          1.57750       10.06660        8.40640
C          0.07910       10.27340        8.17250
C          2.04300        7.74010        9.39050
C          2.33090        6.41160        8.97800
Cl         2.46290        5.10720       10.08640
Cl         1.86990        8.17320       11.04210
C          1.83080        4.66730        5.82590
S          0.43940        5.52260        5.20650
C          4.85410        4.48940        8.03930
C          5.78070        3.50910        8.03340
S          5.43740        2.23210        6.92020
H          3.73740       -3.84960        9.69600
H          5.30800       -3.40310        7.66940
H          9.71310       -1.84340        3.96560
H          9.59800       -3.56460        3.55090
H          8.40790       -2.96560        1.43520
H          8.56190       -1.25390        1.83890
H         10.00710       -2.21720        1.51710
H         -2.81280       -8.56410        5.62710
H         -3.99890       -7.29310        5.97770
H         -2.66870       -7.78670        3.26280
H         -3.85330       -6.52170        3.60200
H         -4.32740       -8.22110        3.68820
H          0.43970       -5.58920        2.92160
H          3.53300       -4.66430       -0.62070
H          6.69270       -4.53580       -6.21020
H          7.40600       -3.19620       -5.29120
H          8.76910       -5.26640       -5.06100
H          7.36980       -6.12550       -4.40780
H          8.08960       -4.79090       -3.50130
H         -6.30940       -6.23210       -0.63040
H         -6.38440       -6.22990       -2.39310
H         -5.78930       -3.81420       -2.44170
H         -5.69290       -3.79480       -0.67820
H         -7.24230       -4.08520       -1.46840
H         -2.19830       -5.43530       -4.81340
H         -3.32030       -4.48780       -6.56650
H         -9.09150       -4.82860       -5.22340
H         -7.81310       -4.55140       -4.02640
H         -8.12120       -6.98390       -4.42450
H         -6.51860       -6.46870       -4.97440
H         -7.80740       -6.75560       -6.14580
H          1.56020        3.54340       -9.68890
H          2.40480        2.68070      -10.98980
H          3.91910        3.08280       -9.05780
H          3.65730        1.35180       -9.29470
H          2.81480        2.20170       -7.99570
H         -2.76710        2.15540       -8.48730
H         -7.75050        4.18990       -6.60480
H         -6.45990        5.16020       -3.15080
H         -4.25790        6.07190       -2.57320
H         -5.16540       11.11500       -0.55580
H         -6.40400        9.87370       -0.82970
H         -6.60130        9.53150        1.63390
H         -5.36670       10.76530        1.90590
H         -6.92230       11.21410        1.19930
H         -1.48250       -3.06660       -1.05950
H         -3.18860       -2.59190       -1.11800
H         -1.60690       -3.22320        1.42540
H         -3.31060       -2.76120        1.37380
H         -2.78220       -4.29120        0.65780
H         -0.82480        2.26730        2.38700
H          1.10370        2.42970        3.43290
H          3.41620       -1.84200        1.39950
H          3.68610       -0.25510        0.67230
H          5.72840       -1.58670        0.47160
H          6.02110       -0.24990        1.59140
H          5.75560       -1.88450        2.21050
H          1.85490       10.46020        9.38580
H          2.14110       10.60190        7.64020
H         -0.16160       11.33250        8.20670
H         -0.49620        9.76010        8.93890
H         -0.20790        9.87970        7.20040
H          4.91960        5.36530        8.65780
H          6.67370        3.44640        8.62410
