
  xtb     02282218373D
 energy: -248.717015622474 gnorm: 0.000752899562 xtb: 6.4.1 (unknown)
182199  0     0  0            999 V2000
   -4.3676   -0.2488   -1.2461 N   0  0  0  0  0  0  0  0  0  0  0  0
   -4.5732   -1.3003   -2.2331 C   0  0  0  0  0  0  0  0  0  0  0  0
   -4.4715   -2.5831   -1.5508 N   0  0  0  0  0  0  0  0  0  0  0  0
   -3.4094   -2.3551   -0.5794 C   0  0  0  0  0  0  0  0  0  0  0  0
   -3.5339   -3.1883    0.6853 C   0  0  0  0  0  0  0  0  0  0  0  0
   -2.5469   -2.6790    1.7459 C   0  0  0  0  0  0  0  0  0  0  0  0
   -2.8070   -1.2008    2.1154 C   0  0  0  0  0  0  0  0  0  0  0  0
   -3.8088   -0.5303    1.1651 C   0  0  0  0  0  0  0  0  0  0  0  0
   -3.4305   -0.8154   -0.2806 C   0  0  0  0  0  0  0  0  0  0  0  0
   -3.2539   -1.2642    3.5058 N   0  0  0  0  0  0  0  0  0  0  0  0
   -3.5954   -2.6274    3.8156 C   0  0  0  0  0  0  0  0  0  0  0  0
   -2.6456   -3.3695    3.0213 N   0  0  0  0  0  0  0  0  0  0  0  0
   -4.0808   -0.2574    4.0267 C   0  0  0  0  0  0  0  0  0  0  0  0
   -3.6839    1.0162    4.0907 C   0  0  0  0  0  0  0  0  0  0  0  0
   -4.3980    2.0730    4.6205 N   0  0  0  0  0  0  0  0  0  0  0  0
   -5.8082    1.9182    4.9450 C   0  0  0  0  0  0  0  0  0  0  0  0
   -6.2640    3.2375    5.3075 N   0  0  0  0  0  0  0  0  0  0  0  0
   -5.5254    4.1452    4.4307 C   0  0  0  0  0  0  0  0  0  0  0  0
   -6.3504    4.4674    3.1829 C   0  0  0  0  0  0  0  0  0  0  0  0
   -5.5519    5.3626    2.2373 C   0  0  0  0  0  0  0  0  0  0  0  0
   -4.1286    4.8225    1.9897 C   0  0  0  0  0  0  0  0  0  0  0  0
   -3.9290    3.4286    2.5700 C   0  0  0  0  0  0  0  0  0  0  0  0
   -4.2018    3.4134    4.0751 C   0  0  0  0  0  0  0  0  0  0  0  0
   -3.9964    4.7676    0.5323 N   0  0  0  0  0  0  0  0  0  0  0  0
   -5.0374    5.6094   -0.0071 C   0  0  0  0  0  0  0  0  0  0  0  0
   -6.1340    5.3777    0.9035 N   0  0  0  0  0  0  0  0  0  0  0  0
   -2.6886    5.0183    0.0570 C   0  0  0  0  0  0  0  0  0  0  0  0
   -1.8508    4.0075   -0.1866 C   0  0  0  0  0  0  0  0  0  0  0  0
   -0.5470    4.1328   -0.5855 N   0  0  0  0  0  0  0  0  0  0  0  0
    0.1843    5.3717   -0.3050 C   0  0  0  0  0  0  0  0  0  0  0  0
    1.5784    5.0286   -0.1646 N   0  0  0  0  0  0  0  0  0  0  0  0
    1.5665    3.6277    0.2323 C   0  0  0  0  0  0  0  0  0  0  0  0
    2.8973    2.9300    0.0270 C   0  0  0  0  0  0  0  0  0  0  0  0
    3.2402    2.7183   -1.4406 C   0  0  0  0  0  0  0  0  0  0  0  0
    2.1323    2.0303   -2.2479 C   0  0  0  0  0  0  0  0  0  0  0  0
    0.7567    2.6733   -2.0167 C   0  0  0  0  0  0  0  0  0  0  0  0
    0.3910    3.0210   -0.5637 C   0  0  0  0  0  0  0  0  0  0  0  0
    2.5215    2.3093   -3.6258 N   0  0  0  0  0  0  0  0  0  0  0  0
    3.0473    3.6716   -3.5873 C   0  0  0  0  0  0  0  0  0  0  0  0
    3.4116    3.9593   -2.1941 N   0  0  0  0  0  0  0  0  0  0  0  0
    3.3455    1.4090   -4.3277 C   0  0  0  0  0  0  0  0  0  0  0  0
    3.9112    0.2784   -3.9043 C   0  0  0  0  0  0  0  0  0  0  0  0
    4.6066   -0.6056   -4.7286 N   0  0  0  0  0  0  0  0  0  0  0  0
    4.9237   -0.2016   -6.0937 C   0  0  0  0  0  0  0  0  0  0  0  0
    5.8175   -1.2135   -6.5948 N   0  0  0  0  0  0  0  0  0  0  0  0
    6.6647   -1.5314   -5.4487 C   0  0  0  0  0  0  0  0  0  0  0  0
    7.2023   -2.9528   -5.5053 C   0  0  0  0  0  0  0  0  0  0  0  0
    7.7871   -3.3845   -4.1541 C   0  0  0  0  0  0  0  0  0  0  0  0
    6.7544   -3.2602   -3.0099 C   0  0  0  0  0  0  0  0  0  0  0  0
    5.4563   -2.5719   -3.4666 C   0  0  0  0  0  0  0  0  0  0  0  0
    5.7913   -1.2699   -4.1890 C   0  0  0  0  0  0  0  0  0  0  0  0
    6.5680   -4.6372   -2.5733 N   0  0  0  0  0  0  0  0  0  0  0  0
    7.0107   -5.5073   -3.6252 C   0  0  0  0  0  0  0  0  0  0  0  0
    8.1639   -4.7912   -4.1217 N   0  0  0  0  0  0  0  0  0  0  0  0
    5.4594   -4.9485   -1.7891 C   0  0  0  0  0  0  0  0  0  0  0  0
    4.6215   -5.9667   -2.0040 C   0  0  0  0  0  0  0  0  0  0  0  0
    3.5641   -6.3468   -1.1977 N   0  0  0  0  0  0  0  0  0  0  0  0
    2.8310   -7.5408   -1.5297 C   0  0  0  0  0  0  0  0  0  0  0  0
    1.7455   -7.5490   -0.5759 N   0  0  0  0  0  0  0  0  0  0  0  0
    1.3929   -6.1614   -0.3429 C   0  0  0  0  0  0  0  0  0  0  0  0
    0.4595   -5.5613   -1.4058 C   0  0  0  0  0  0  0  0  0  0  0  0
    0.1484   -4.1025   -1.0763 C   0  0  0  0  0  0  0  0  0  0  0  0
    1.3350   -3.4002   -0.3997 C   0  0  0  0  0  0  0  0  0  0  0  0
    2.6500   -4.0178   -0.8752 C   0  0  0  0  0  0  0  0  0  0  0  0
    2.7675   -5.4605   -0.3681 C   0  0  0  0  0  0  0  0  0  0  0  0
    1.2065   -2.0234   -0.8294 N   0  0  0  0  0  0  0  0  0  0  0  0
    0.2828   -1.9296   -1.9376 C   0  0  0  0  0  0  0  0  0  0  0  0
   -0.0100   -3.3059   -2.2830 N   0  0  0  0  0  0  0  0  0  0  0  0
    1.3440   -0.9732    0.0478 C   0  0  0  0  0  0  0  0  0  0  0  0
    2.1027   -0.9642    1.1466 C   0  0  0  0  0  0  0  0  0  0  0  0
    2.1529    0.1785    1.9734 N   0  0  0  0  0  0  0  0  0  0  0  0
    3.3887    0.4002    2.7110 C   0  0  0  0  0  0  0  0  0  0  0  0
    3.1138    1.5508    3.5400 N   0  0  0  0  0  0  0  0  0  0  0  0
    1.6980    1.4338    3.9107 C   0  0  0  0  0  0  0  0  0  0  0  0
    1.5683    1.0461    5.3837 C   0  0  0  0  0  0  0  0  0  0  0  0
    0.1415    0.5944    5.6922 C   0  0  0  0  0  0  0  0  0  0  0  0
   -0.2367   -0.6685    4.8743 C   0  0  0  0  0  0  0  0  0  0  0  0
    0.7496   -0.9322    3.7300 C   0  0  0  0  0  0  0  0  0  0  0  0
    1.0956    0.3553    2.9718 C   0  0  0  0  0  0  0  0  0  0  0  0
   -0.2228   -1.7139    5.8775 N   0  0  0  0  0  0  0  0  0  0  0  0
    0.3139   -1.2028    7.1208 C   0  0  0  0  0  0  0  0  0  0  0  0
    0.0249    0.2145    7.0991 N   0  0  0  0  0  0  0  0  0  0  0  0
   -0.3878   -3.0367    5.5908 C   0  0  0  0  0  0  0  0  0  0  0  0
   -0.1145   -4.0565    6.4034 C   0  0  0  0  0  0  0  0  0  0  0  0
   -5.2429   -0.0161   -0.7866 H   0  0  0  0  0  0  0  0  0  0  0  0
   -3.7498   -1.2466   -2.9565 H   0  0  0  0  0  0  0  0  0  0  0  0
   -5.5196   -1.1902   -2.7596 H   0  0  0  0  0  0  0  0  0  0  0  0
   -5.3430   -2.7838   -1.0649 H   0  0  0  0  0  0  0  0  0  0  0  0
   -2.4674   -2.6036   -1.0803 H   0  0  0  0  0  0  0  0  0  0  0  0
   -4.5536   -3.1355    1.0756 H   0  0  0  0  0  0  0  0  0  0  0  0
   -3.3219   -4.2366    0.4597 H   0  0  0  0  0  0  0  0  0  0  0  0
   -1.5264   -2.8065    1.3616 H   0  0  0  0  0  0  0  0  0  0  0  0
   -1.8650   -0.6384    2.0716 H   0  0  0  0  0  0  0  0  0  0  0  0
   -4.8173   -0.8998    1.3710 H   0  0  0  0  0  0  0  0  0  0  0  0
   -3.8115    0.5463    1.3382 H   0  0  0  0  0  0  0  0  0  0  0  0
   -2.4381   -0.3894   -0.4798 H   0  0  0  0  0  0  0  0  0  0  0  0
   -4.6620   -2.8631    3.5759 H   0  0  0  0  0  0  0  0  0  0  0  0
   -3.4333   -2.8283    4.8800 H   0  0  0  0  0  0  0  0  0  0  0  0
   -2.8898   -4.3476    2.9234 H   0  0  0  0  0  0  0  0  0  0  0  0
   -5.0362   -0.5825    4.4200 H   0  0  0  0  0  0  0  0  0  0  0  0
   -2.7054    1.2878    3.7231 H   0  0  0  0  0  0  0  0  0  0  0  0
   -5.9395    1.2110    5.7667 H   0  0  0  0  0  0  0  0  0  0  0  0
   -6.3862    1.5609    4.0753 H   0  0  0  0  0  0  0  0  0  0  0  0
   -6.0192    3.4230    6.2743 H   0  0  0  0  0  0  0  0  0  0  0  0
   -5.3239    5.0824    4.9577 H   0  0  0  0  0  0  0  0  0  0  0  0
   -7.2717    4.9645    3.4870 H   0  0  0  0  0  0  0  0  0  0  0  0
   -6.6238    3.5537    2.6600 H   0  0  0  0  0  0  0  0  0  0  0  0
   -5.4822    6.3746    2.6762 H   0  0  0  0  0  0  0  0  0  0  0  0
   -3.3830    5.5031    2.4359 H   0  0  0  0  0  0  0  0  0  0  0  0
   -2.9054    3.1131    2.3646 H   0  0  0  0  0  0  0  0  0  0  0  0
   -4.6035    2.7423    2.0583 H   0  0  0  0  0  0  0  0  0  0  0  0
   -3.3561    3.8827    4.5976 H   0  0  0  0  0  0  0  0  0  0  0  0
   -4.7214    6.6827   -0.0530 H   0  0  0  0  0  0  0  0  0  0  0  0
   -5.3022    5.2841   -1.0178 H   0  0  0  0  0  0  0  0  0  0  0  0
   -6.8788    6.0563    0.8042 H   0  0  0  0  0  0  0  0  0  0  0  0
   -2.3936    6.0593   -0.0612 H   0  0  0  0  0  0  0  0  0  0  0  0
   -2.2124    2.9923   -0.1048 H   0  0  0  0  0  0  0  0  0  0  0  0
    0.0284    6.1120   -1.0959 H   0  0  0  0  0  0  0  0  0  0  0  0
   -0.1844    5.7961    0.6441 H   0  0  0  0  0  0  0  0  0  0  0  0
    2.0742    5.0875   -1.0531 H   0  0  0  0  0  0  0  0  0  0  0  0
    1.3035    3.5942    1.3004 H   0  0  0  0  0  0  0  0  0  0  0  0
    3.6820    3.5200    0.5049 H   0  0  0  0  0  0  0  0  0  0  0  0
    2.8445    1.9489    0.5025 H   0  0  0  0  0  0  0  0  0  0  0  0
    4.1456    2.0865   -1.4927 H   0  0  0  0  0  0  0  0  0  0  0  0
    2.0924    0.9586   -2.0570 H   0  0  0  0  0  0  0  0  0  0  0  0
    0.7228    3.6048   -2.5795 H   0  0  0  0  0  0  0  0  0  0  0  0
   -0.0122    2.0221   -2.4352 H   0  0  0  0  0  0  0  0  0  0  0  0
   -0.0317    2.1540   -0.0484 H   0  0  0  0  0  0  0  0  0  0  0  0
    3.8916    3.7779   -4.2771 H   0  0  0  0  0  0  0  0  0  0  0  0
    2.2681    4.3828   -3.8988 H   0  0  0  0  0  0  0  0  0  0  0  0
    4.3501    4.3292   -2.1097 H   0  0  0  0  0  0  0  0  0  0  0  0
    3.4732    1.7302   -5.3520 H   0  0  0  0  0  0  0  0  0  0  0  0
    3.8101   -0.0789   -2.8893 H   0  0  0  0  0  0  0  0  0  0  0  0
    5.4518    0.7683   -6.1188 H   0  0  0  0  0  0  0  0  0  0  0  0
    4.0154   -0.1299   -6.6948 H   0  0  0  0  0  0  0  0  0  0  0  0
    5.2789   -2.0373   -6.8491 H   0  0  0  0  0  0  0  0  0  0  0  0
    7.5019   -0.8225   -5.4598 H   0  0  0  0  0  0  0  0  0  0  0  0
    7.9724   -3.0196   -6.2763 H   0  0  0  0  0  0  0  0  0  0  0  0
    6.3965   -3.6375   -5.7819 H   0  0  0  0  0  0  0  0  0  0  0  0
    8.6789   -2.7825   -3.9450 H   0  0  0  0  0  0  0  0  0  0  0  0
    7.1755   -2.6851   -2.1752 H   0  0  0  0  0  0  0  0  0  0  0  0
    4.8892   -3.2299   -4.1265 H   0  0  0  0  0  0  0  0  0  0  0  0
    4.8291   -2.3640   -2.5993 H   0  0  0  0  0  0  0  0  0  0  0  0
    6.3307   -0.6127   -3.4891 H   0  0  0  0  0  0  0  0  0  0  0  0
    6.2296   -5.6814   -4.4056 H   0  0  0  0  0  0  0  0  0  0  0  0
    7.3090   -6.4772   -3.2152 H   0  0  0  0  0  0  0  0  0  0  0  0
    8.4812   -5.1271   -5.0233 H   0  0  0  0  0  0  0  0  0  0  0  0
    5.3448   -4.2853   -0.9476 H   0  0  0  0  0  0  0  0  0  0  0  0
    4.7826   -6.6397   -2.8350 H   0  0  0  0  0  0  0  0  0  0  0  0
    3.4536   -8.4349   -1.3841 H   0  0  0  0  0  0  0  0  0  0  0  0
    2.4923   -7.5311   -2.5915 H   0  0  0  0  0  0  0  0  0  0  0  0
    0.9592   -8.1073   -0.8864 H   0  0  0  0  0  0  0  0  0  0  0  0
    0.9164   -6.0823    0.6403 H   0  0  0  0  0  0  0  0  0  0  0  0
    0.9427   -5.6010   -2.3824 H   0  0  0  0  0  0  0  0  0  0  0  0
   -0.4636   -6.1429   -1.4585 H   0  0  0  0  0  0  0  0  0  0  0  0
   -0.7319   -4.0518   -0.4107 H   0  0  0  0  0  0  0  0  0  0  0  0
    1.2744   -3.4580    0.6935 H   0  0  0  0  0  0  0  0  0  0  0  0
    3.4717   -3.4092   -0.5035 H   0  0  0  0  0  0  0  0  0  0  0  0
    2.6734   -3.9928   -1.9640 H   0  0  0  0  0  0  0  0  0  0  0  0
    3.1873   -5.4516    0.6492 H   0  0  0  0  0  0  0  0  0  0  0  0
    0.7542   -1.4328   -2.7988 H   0  0  0  0  0  0  0  0  0  0  0  0
   -0.6130   -1.3395   -1.6524 H   0  0  0  0  0  0  0  0  0  0  0  0
   -0.9190   -3.4125   -2.7168 H   0  0  0  0  0  0  0  0  0  0  0  0
    0.7894   -0.0835   -0.2195 H   0  0  0  0  0  0  0  0  0  0  0  0
    2.7139   -1.8147    1.4329 H   0  0  0  0  0  0  0  0  0  0  0  0
    3.6506   -0.4563    3.3592 H   0  0  0  0  0  0  0  0  0  0  0  0
    4.2212    0.5802    2.0279 H   0  0  0  0  0  0  0  0  0  0  0  0
    3.2625    2.3980    3.0042 H   0  0  0  0  0  0  0  0  0  0  0  0
    1.1916    2.3922    3.7562 H   0  0  0  0  0  0  0  0  0  0  0  0
    1.8210    1.9006    6.0102 H   0  0  0  0  0  0  0  0  0  0  0  0
    2.2752    0.2524    5.6152 H   0  0  0  0  0  0  0  0  0  0  0  0
   -0.5405    1.4223    5.4782 H   0  0  0  0  0  0  0  0  0  0  0  0
   -1.2500   -0.5797    4.4646 H   0  0  0  0  0  0  0  0  0  0  0  0
    1.6623   -1.3714    4.1364 H   0  0  0  0  0  0  0  0  0  0  0  0
    0.3169   -1.6541    3.0346 H   0  0  0  0  0  0  0  0  0  0  0  0
    0.1954    0.7286    2.4690 H   0  0  0  0  0  0  0  0  0  0  0  0
   -0.1517   -1.6941    7.9785 H   0  0  0  0  0  0  0  0  0  0  0  0
    1.4056   -1.3450    7.1867 H   0  0  0  0  0  0  0  0  0  0  0  0
   -0.9312    0.3640    7.4056 H   0  0  0  0  0  0  0  0  0  0  0  0
   -0.8227   -3.2102    4.6156 H   0  0  0  0  0  0  0  0  0  0  0  0
   -0.3342   -5.0638    6.1027 H   0  0  0  0  0  0  0  0  0  0  0  0
    0.3195   -3.9276    7.3787 H   0  0  0  0  0  0  0  0  0  0  0  0
  1  2  1  0  0  0  0
  2  3  1  0  0  0  0
  3  4  1  0  0  0  0
  4  5  1  0  0  0  0
  5  6  1  0  0  0  0
  6  7  1  0  0  0  0
  7  8  1  0  0  0  0
  8  9  1  0  0  0  0
  7 10  1  0  0  0  0
 10 11  1  0  0  0  0
 11 12  1  0  0  0  0
 10 13  1  0  0  0  0
 13 14  2  0  0  0  0
 14 15  1  0  0  0  0
 15 16  1  0  0  0  0
 16 17  1  0  0  0  0
 17 18  1  0  0  0  0
 18 19  1  0  0  0  0
 19 20  1  0  0  0  0
 20 21  1  0  0  0  0
 21 22  1  0  0  0  0
 22 23  1  0  0  0  0
 21 24  1  0  0  0  0
 24 25  1  0  0  0  0
 25 26  1  0  0  0  0
 24 27  1  0  0  0  0
 27 28  2  0  0  0  0
 28 29  1  0  0  0  0
 29 30  1  0  0  0  0
 30 31  1  0  0  0  0
 31 32  1  0  0  0  0
 32 33  1  0  0  0  0
 33 34  1  0  0  0  0
 34 35  1  0  0  0  0
 35 36  1  0  0  0  0
 36 37  1  0  0  0  0
 35 38  1  0  0  0  0
 38 39  1  0  0  0  0
 39 40  1  0  0  0  0
 38 41  1  0  0  0  0
 41 42  2  0  0  0  0
 42 43  1  0  0  0  0
 43 44  1  0  0  0  0
 44 45  1  0  0  0  0
 45 46  1  0  0  0  0
 46 47  1  0  0  0  0
 47 48  1  0  0  0  0
 48 49  1  0  0  0  0
 49 50  1  0  0  0  0
 50 51  1  0  0  0  0
 49 52  1  0  0  0  0
 52 53  1  0  0  0  0
 53 54  1  0  0  0  0
 52 55  1  0  0  0  0
 55 56  2  0  0  0  0
 56 57  1  0  0  0  0
 57 58  1  0  0  0  0
 58 59  1  0  0  0  0
 59 60  1  0  0  0  0
 60 61  1  0  0  0  0
 61 62  1  0  0  0  0
 62 63  1  0  0  0  0
 63 64  1  0  0  0  0
 64 65  1  0  0  0  0
 63 66  1  0  0  0  0
 66 67  1  0  0  0  0
 67 68  1  0  0  0  0
 66 69  1  0  0  0  0
 69 70  2  0  0  0  0
 70 71  1  0  0  0  0
 71 72  1  0  0  0  0
 72 73  1  0  0  0  0
 73 74  1  0  0  0  0
 74 75  1  0  0  0  0
 75 76  1  0  0  0  0
 76 77  1  0  0  0  0
 77 78  1  0  0  0  0
 78 79  1  0  0  0  0
 77 80  1  0  0  0  0
 80 81  1  0  0  0  0
 81 82  1  0  0  0  0
 80 83  1  0  0  0  0
 83 84  2  0  0  0  0
  9  1  1  0  0  0  0
 23 15  1  0  0  0  0
 37 29  1  0  0  0  0
 51 43  1  0  0  0  0
 65 57  1  0  0  0  0
 79 71  1  0  0  0  0
  9  4  1  0  0  0  0
 23 18  1  0  0  0  0
 37 32  1  0  0  0  0
 51 46  1  0  0  0  0
 65 60  1  0  0  0  0
 79 74  1  0  0  0  0
 12  6  1  0  0  0  0
 26 20  1  0  0  0  0
 40 34  1  0  0  0  0
 54 48  1  0  0  0  0
 68 62  1  0  0  0  0
 82 76  1  0  0  0  0
  1 85  1  0  0  0  0
  2 86  1  0  0  0  0
  2 87  1  0  0  0  0
  3 88  1  0  0  0  0
  4 89  1  0  0  0  0
  5 90  1  0  0  0  0
  5 91  1  0  0  0  0
  6 92  1  0  0  0  0
  7 93  1  0  0  0  0
  8 94  1  0  0  0  0
  8 95  1  0  0  0  0
  9 96  1  0  0  0  0
 11 97  1  0  0  0  0
 11 98  1  0  0  0  0
 12 99  1  0  0  0  0
 13100  1  0  0  0  0
 14101  1  0  0  0  0
 16102  1  0  0  0  0
 16103  1  0  0  0  0
 17104  1  0  0  0  0
 18105  1  0  0  0  0
 19106  1  0  0  0  0
 19107  1  0  0  0  0
 20108  1  0  0  0  0
 21109  1  0  0  0  0
 22110  1  0  0  0  0
 22111  1  0  0  0  0
 23112  1  0  0  0  0
 25113  1  0  0  0  0
 25114  1  0  0  0  0
 26115  1  0  0  0  0
 27116  1  0  0  0  0
 28117  1  0  0  0  0
 30118  1  0  0  0  0
 30119  1  0  0  0  0
 31120  1  0  0  0  0
 32121  1  0  0  0  0
 33122  1  0  0  0  0
 33123  1  0  0  0  0
 34124  1  0  0  0  0
 35125  1  0  0  0  0
 36126  1  0  0  0  0
 36127  1  0  0  0  0
 37128  1  0  0  0  0
 39129  1  0  0  0  0
 39130  1  0  0  0  0
 40131  1  0  0  0  0
 41132  1  0  0  0  0
 42133  1  0  0  0  0
 44134  1  0  0  0  0
 44135  1  0  0  0  0
 45136  1  0  0  0  0
 46137  1  0  0  0  0
 47138  1  0  0  0  0
 47139  1  0  0  0  0
 48140  1  0  0  0  0
 49141  1  0  0  0  0
 50142  1  0  0  0  0
 50143  1  0  0  0  0
 51144  1  0  0  0  0
 53145  1  0  0  0  0
 53146  1  0  0  0  0
 54147  1  0  0  0  0
 55148  1  0  0  0  0
 56149  1  0  0  0  0
 58150  1  0  0  0  0
 58151  1  0  0  0  0
 59152  1  0  0  0  0
 60153  1  0  0  0  0
 61154  1  0  0  0  0
 61155  1  0  0  0  0
 62156  1  0  0  0  0
 63157  1  0  0  0  0
 64158  1  0  0  0  0
 64159  1  0  0  0  0
 65160  1  0  0  0  0
 67161  1  0  0  0  0
 67162  1  0  0  0  0
 68163  1  0  0  0  0
 69164  1  0  0  0  0
 70165  1  0  0  0  0
 72166  1  0  0  0  0
 72167  1  0  0  0  0
 73168  1  0  0  0  0
 74169  1  0  0  0  0
 75170  1  0  0  0  0
 75171  1  0  0  0  0
 76172  1  0  0  0  0
 77173  1  0  0  0  0
 78174  1  0  0  0  0
 78175  1  0  0  0  0
 79176  1  0  0  0  0
 81177  1  0  0  0  0
 81178  1  0  0  0  0
 82179  1  0  0  0  0
 83180  1  0  0  0  0
 84181  1  0  0  0  0
 84182  1  0  0  0  0
M  END
