
  xtb     02282217163D
 energy: -122.686957800144 gnorm: 0.000555158679 xtb: 6.4.1 (unknown)
 71 79  0     0  0            999 V2000
    1.7305   -5.6112    9.1970 C   0  0  0  0  0  0  0  0  0  0  0  0
    2.4329   -3.9024    9.1085 S   0  0  0  0  0  0  0  0  0  0  0  0
    1.5728   -4.1822    7.4944 C   0  0  0  0  0  0  0  0  0  0  0  0
    1.8101   -5.6645    7.6703 C   0  0  0  0  0  0  0  0  0  0  0  0
    0.9101   -6.2133    6.6869 N   0  0  0  0  0  0  0  0  0  0  0  0
    1.0865   -5.3009    5.5296 C   0  0  0  0  0  0  0  0  0  0  0  0
    1.8363   -4.0067    6.0133 C   0  0  0  0  0  0  0  0  0  0  0  0
    1.3092   -2.7494    5.4062 C   0  0  0  0  0  0  0  0  0  0  0  0
    0.6515   -2.7425    3.7980 S   0  0  0  0  0  0  0  0  0  0  0  0
    0.3385   -1.0371    3.8673 C   0  0  0  0  0  0  0  0  0  0  0  0
    0.7323   -0.5235    5.0724 C   0  0  0  0  0  0  0  0  0  0  0  0
    1.2942   -1.4972    5.9489 C   0  0  0  0  0  0  0  0  0  0  0  0
    1.7479   -1.1134    7.1699 O   0  0  0  0  0  0  0  0  0  0  0  0
    0.5886    1.1657    5.5252 S   0  0  0  0  0  0  0  0  0  0  0  0
   -0.2622   -0.2801    2.7703 C   0  0  0  0  0  0  0  0  0  0  0  0
   -2.1417   -0.4905    2.6137 S   0  0  0  0  0  0  0  0  0  0  0  0
   -1.3997   -1.7087    1.4466 C   0  0  0  0  0  0  0  0  0  0  0  0
   -0.1690   -0.8409    1.3449 C   0  0  0  0  0  0  0  0  0  0  0  0
    0.7689   -1.7577    0.7478 N   0  0  0  0  0  0  0  0  0  0  0  0
   -0.0519   -2.4274   -0.2924 C   0  0  0  0  0  0  0  0  0  0  0  0
   -1.5653   -2.1530    0.0004 C   0  0  0  0  0  0  0  0  0  0  0  0
   -2.1811   -1.0945   -0.8589 C   0  0  0  0  0  0  0  0  0  0  0  0
   -1.3033   -0.1879   -2.0524 S   0  0  0  0  0  0  0  0  0  0  0  0
   -2.7055    0.7468   -2.4615 C   0  0  0  0  0  0  0  0  0  0  0  0
   -3.7784    0.3710   -1.7006 C   0  0  0  0  0  0  0  0  0  0  0  0
   -3.4769   -0.6705   -0.7791 C   0  0  0  0  0  0  0  0  0  0  0  0
   -4.4359   -1.1454    0.0608 O   0  0  0  0  0  0  0  0  0  0  0  0
   -5.3732    1.0922   -1.8097 S   0  0  0  0  0  0  0  0  0  0  0  0
   -2.6854    1.8172   -3.4574 C   0  0  0  0  0  0  0  0  0  0  0  0
   -2.8801    1.2418   -5.2583 S   0  0  0  0  0  0  0  0  0  0  0  0
   -1.0687    1.3582   -4.9532 C   0  0  0  0  0  0  0  0  0  0  0  0
   -1.3237    2.3824   -3.8763 C   0  0  0  0  0  0  0  0  0  0  0  0
   -0.0521    2.3861   -3.1984 N   0  0  0  0  0  0  0  0  0  0  0  0
    0.9031    2.4313   -4.3314 C   0  0  0  0  0  0  0  0  0  0  0  0
    0.1876    1.8948   -5.6240 C   0  0  0  0  0  0  0  0  0  0  0  0
   -0.0398    2.9230   -6.6741 C   0  0  0  0  0  0  0  0  0  0  0  0
   -0.6558    4.5164   -6.3642 S   0  0  0  0  0  0  0  0  0  0  0  0
   -0.6089    4.9236   -8.0316 C   0  0  0  0  0  0  0  0  0  0  0  0
   -0.1550    3.8902   -8.7857 C   0  0  0  0  0  0  0  0  0  0  0  0
    0.1762    2.7403   -8.0111 C   0  0  0  0  0  0  0  0  0  0  0  0
    0.6691    1.5843   -8.5212 O   0  0  0  0  0  0  0  0  0  0  0  0
    0.0448    3.9009  -10.5438 S   0  0  0  0  0  0  0  0  0  0  0  0
    0.7194   -5.5693    9.5950 H   0  0  0  0  0  0  0  0  0  0  0  0
    2.3479   -6.3112    9.7508 H   0  0  0  0  0  0  0  0  0  0  0  0
    0.5218   -3.9486    7.6909 H   0  0  0  0  0  0  0  0  0  0  0  0
    2.8677   -5.8885    7.4329 H   0  0  0  0  0  0  0  0  0  0  0  0
    1.1061   -7.1759    6.4373 H   0  0  0  0  0  0  0  0  0  0  0  0
    1.6398   -5.7692    4.7118 H   0  0  0  0  0  0  0  0  0  0  0  0
    0.0928   -5.0316    5.1620 H   0  0  0  0  0  0  0  0  0  0  0  0
    2.9079   -4.1048    5.7965 H   0  0  0  0  0  0  0  0  0  0  0  0
    2.0759   -1.8681    7.6731 H   0  0  0  0  0  0  0  0  0  0  0  0
    1.1700    0.9798    6.7060 H   0  0  0  0  0  0  0  0  0  0  0  0
   -0.0218    0.7789    2.8710 H   0  0  0  0  0  0  0  0  0  0  0  0
   -1.1922   -2.5933    2.0530 H   0  0  0  0  0  0  0  0  0  0  0  0
   -0.3869    0.0155    0.6816 H   0  0  0  0  0  0  0  0  0  0  0  0
    1.5823   -1.3081    0.3435 H   0  0  0  0  0  0  0  0  0  0  0  0
    0.1974   -2.0774   -1.2979 H   0  0  0  0  0  0  0  0  0  0  0  0
    0.1509   -3.4995   -0.2360 H   0  0  0  0  0  0  0  0  0  0  0  0
   -2.1458   -3.0771   -0.0928 H   0  0  0  0  0  0  0  0  0  0  0  0
   -4.0295   -1.6218    0.7929 H   0  0  0  0  0  0  0  0  0  0  0  0
   -5.8508    0.3698   -0.8006 H   0  0  0  0  0  0  0  0  0  0  0  0
   -3.4531    2.5575   -3.2288 H   0  0  0  0  0  0  0  0  0  0  0  0
   -0.8069    0.3988   -4.5011 H   0  0  0  0  0  0  0  0  0  0  0  0
   -1.5423    3.3600   -4.3420 H   0  0  0  0  0  0  0  0  0  0  0  0
    0.0830    3.1719   -2.5716 H   0  0  0  0  0  0  0  0  0  0  0  0
    1.2627    3.4496   -4.5163 H   0  0  0  0  0  0  0  0  0  0  0  0
    1.7567    1.7996   -4.0794 H   0  0  0  0  0  0  0  0  0  0  0  0
    0.7663    1.0962   -6.0934 H   0  0  0  0  0  0  0  0  0  0  0  0
   -0.9304    5.8941   -8.3515 H   0  0  0  0  0  0  0  0  0  0  0  0
    0.7195    1.6580   -9.4826 H   0  0  0  0  0  0  0  0  0  0  0  0
   -0.4489    5.1200  -10.7214 H   0  0  0  0  0  0  0  0  0  0  0  0
  1  2  1  0  0  0  0
  2  3  1  0  0  0  0
  3  4  1  0  0  0  0
  4  5  1  0  0  0  0
  5  6  1  0  0  0  0
  6  7  1  0  0  0  0
  7  8  1  0  0  0  0
  8  9  1  0  0  0  0
  9 10  1  0  0  0  0
 10 11  2  0  0  0  0
 11 12  1  0  0  0  0
 12 13  1  0  0  0  0
 11 14  1  0  0  0  0
 10 15  1  0  0  0  0
 15 16  1  0  0  0  0
 16 17  1  0  0  0  0
 17 18  1  0  0  0  0
 18 19  1  0  0  0  0
 19 20  1  0  0  0  0
 20 21  1  0  0  0  0
 21 22  1  0  0  0  0
 22 23  1  0  0  0  0
 23 24  1  0  0  0  0
 24 25  2  0  0  0  0
 25 26  1  0  0  0  0
 26 27  1  0  0  0  0
 25 28  1  0  0  0  0
 24 29  1  0  0  0  0
 29 30  1  0  0  0  0
 30 31  1  0  0  0  0
 31 32  1  0  0  0  0
 32 33  1  0  0  0  0
 33 34  1  0  0  0  0
 34 35  1  0  0  0  0
 35 36  1  0  0  0  0
 36 37  1  0  0  0  0
 37 38  1  0  0  0  0
 38 39  2  0  0  0  0
 39 40  1  0  0  0  0
 40 41  1  0  0  0  0
 39 42  1  0  0  0  0
  4  1  1  0  0  0  0
 12  8  2  0  0  0  0
 18 15  1  0  0  0  0
 26 22  2  0  0  0  0
 32 29  1  0  0  0  0
 40 36  2  0  0  0  0
  7  3  1  0  0  0  0
 21 17  1  0  0  0  0
 35 31  1  0  0  0  0
  1 43  1  0  0  0  0
  1 44  1  0  0  0  0
  3 45  1  0  0  0  0
  4 46  1  0  0  0  0
  5 47  1  0  0  0  0
  6 48  1  0  0  0  0
  6 49  1  0  0  0  0
  7 50  1  0  0  0  0
 13 51  1  0  0  0  0
 14 52  1  0  0  0  0
 15 53  1  0  0  0  0
 17 54  1  0  0  0  0
 18 55  1  0  0  0  0
 19 56  1  0  0  0  0
 20 57  1  0  0  0  0
 20 58  1  0  0  0  0
 21 59  1  0  0  0  0
 27 60  1  0  0  0  0
 28 61  1  0  0  0  0
 29 62  1  0  0  0  0
 31 63  1  0  0  0  0
 32 64  1  0  0  0  0
 33 65  1  0  0  0  0
 34 66  1  0  0  0  0
 34 67  1  0  0  0  0
 35 68  1  0  0  0  0
 38 69  1  0  0  0  0
 41 70  1  0  0  0  0
 42 71  1  0  0  0  0
M  END
