89

C         -3.70330        9.93980        5.86340
S         -4.51010        8.52880        6.42840
C         -3.79850        7.52310        5.18660
C         -3.00610        8.30390        4.37520
C         -2.93990        9.67270        4.77000
O         -2.21010       10.59670        4.12160
S         -2.03880        7.75250        2.99270
C         -4.06230        6.12490        5.09710
S         -3.43020        5.18040        3.76760
C         -4.13220        3.71320        4.38310
C         -4.80120        3.94800        5.56430
C         -4.76830        5.31010        5.96230
O         -5.38290        5.67390        7.11130
S         -5.54240        2.73030        6.58010
C         -3.91610        2.50100        3.67080
S         -2.53270        2.34310        2.62600
C         -2.95120        0.70950        2.19970
C         -4.10000        0.32470        2.86060
C         -4.66480        1.33880        3.66850
O         -5.82860        1.21420        4.33010
S         -4.87910       -1.26660        2.79680
C         -2.12890       -0.01990        1.29420
C         -2.41930       -1.16220        0.60190
C         -1.35040       -1.62250       -0.20170
C         -1.30410       -2.79180       -0.98370
C         -2.42320       -3.71810       -1.00880
S         -3.11990       -4.30830        0.47460
C         -4.28640       -5.27650       -0.35940
C         -5.31730       -6.04430        0.39030
C         -6.44360       -5.12190        0.86370
C         -4.13450       -5.13920       -1.70610
Cl        -5.11400       -5.93720       -2.86800
C         -3.07690       -4.26370       -2.07790
Cl        -2.74660       -3.87780       -3.71510
C         -0.12670       -3.02830       -1.67690
C          0.98880       -2.15720       -1.63710
C          0.93590       -0.98460       -0.86340
C          2.06360       -0.07050       -0.79740
S          3.65860       -0.62730       -0.38050
C          4.33350        0.96180       -0.50290
C          5.79030        1.19330       -0.30420
C          6.58830        0.73740       -1.52800
C          3.36910        1.85810       -0.85340
C          2.08060        1.27940       -1.01460
Cl         0.72460        2.19510       -1.52250
Cl         3.65460        3.53430       -1.08320
C         -0.23380       -0.75320       -0.15090
S         -0.51290        0.56560        0.94660
C          2.06260       -2.62940       -2.42800
C          1.82170       -3.82960       -3.03090
S          0.21490       -4.43300       -2.64660
C          2.72650       -4.54570       -3.86450
S          4.35240       -3.93710       -4.05500
C          4.81060       -5.25140       -5.11860
C          3.73590       -6.09690       -5.29970
C          2.56650       -5.70110       -4.59650
O          1.44280       -6.44450       -4.69840
S          3.73380       -7.54400       -6.29030
C          6.12420       -5.34880       -5.66240
S          6.56450       -6.69400       -6.68890
C          8.16020       -6.09950       -6.87660
C          8.35940       -4.93640       -6.19890
C          7.20240       -4.49670       -5.50090
O          7.25800       -3.34860       -4.78390
S          9.87440       -4.04630       -6.16720
H         -3.84600       10.87320        6.36480
H         -1.75580       10.16170        3.38160
H         -3.05790        7.43680        2.19350
H         -5.24710        6.60960        7.29890
H         -5.83770        3.60810        7.53870
H         -6.12810        0.29350        4.28840
H         -3.75740       -1.98030        2.86620
H         -3.38270       -1.63470        0.61530
H         -5.72370       -6.81590       -0.26560
H         -4.85660       -6.52640        1.25480
H         -6.05080       -4.34900        1.52060
H         -6.92210       -4.64350        0.01290
H         -7.19060       -5.69400        1.40670
H          5.95270        2.25870       -0.13360
H          6.13080        0.64220        0.57470
H          7.64820        0.91640       -1.37040
H          6.27020        1.28530       -2.41150
H          6.43590       -0.32520       -1.70310
H          2.98920       -2.10010       -2.55430
H          0.71550       -6.04320       -4.20690
H          2.45890       -7.81660       -6.01220
H          8.86740       -6.63550       -7.47500
H          6.41090       -3.15730       -4.36710
H          9.39600       -3.09350       -5.37200
