
  xtb     02282219183D
 energy: -164.749197112989 gnorm: 0.000348604737 xtb: 6.4.1 (unknown)
 89100  0     0  0            999 V2000
   15.3474   -0.8564   -4.1841 C   0  0  0  0  0  0  0  0  0  0  0  0
   13.9055   -1.6369   -4.7529 S   0  0  0  0  0  0  0  0  0  0  0  0
   13.0234   -0.9797   -3.4226 C   0  0  0  0  0  0  0  0  0  0  0  0
   11.7435   -0.9429   -2.8613 C   0  0  0  0  0  0  0  0  0  0  0  0
   11.8304   -0.1380   -1.7095 C   0  0  0  0  0  0  0  0  0  0  0  0
   13.1196    0.2967   -1.5450 N   0  0  0  0  0  0  0  0  0  0  0  0
   13.5810    1.2212   -0.5435 C   0  0  0  0  0  0  0  0  0  0  0  0
   13.3691    2.6711   -0.9765 C   0  0  0  0  0  0  0  0  0  0  0  0
   13.8481   -0.1965   -2.5958 C   0  0  0  0  0  0  0  0  0  0  0  0
   15.1824   -0.1335   -3.0446 C   0  0  0  0  0  0  0  0  0  0  0  0
   10.6125    0.0053   -1.0321 C   0  0  0  0  0  0  0  0  0  0  0  0
    9.5999   -0.6837   -1.6575 C   0  0  0  0  0  0  0  0  0  0  0  0
   10.1412   -1.5322   -3.1052 S   0  0  0  0  0  0  0  0  0  0  0  0
    8.2341   -0.7594   -1.2748 C   0  0  0  0  0  0  0  0  0  0  0  0
    7.6760    0.1196    0.1479 S   0  0  0  0  0  0  0  0  0  0  0  0
    6.0689   -0.4494   -0.1226 C   0  0  0  0  0  0  0  0  0  0  0  0
    4.7748   -0.3677    0.3890 C   0  0  0  0  0  0  0  0  0  0  0  0
    3.9511   -1.1482   -0.4460 C   0  0  0  0  0  0  0  0  0  0  0  0
    4.7098   -1.7174   -1.4334 N   0  0  0  0  0  0  0  0  0  0  0  0
    4.2217   -2.5064   -2.5341 C   0  0  0  0  0  0  0  0  0  0  0  0
    3.7902   -1.6283   -3.7070 C   0  0  0  0  0  0  0  0  0  0  0  0
    5.9969   -1.2816   -1.2582 C   0  0  0  0  0  0  0  0  0  0  0  0
    7.2264   -1.4521   -1.9048 C   0  0  0  0  0  0  0  0  0  0  0  0
    2.6033   -1.1488   -0.0693 C   0  0  0  0  0  0  0  0  0  0  0  0
    2.3785   -0.3785    1.0488 C   0  0  0  0  0  0  0  0  0  0  0  0
    3.8649    0.3647    1.6578 S   0  0  0  0  0  0  0  0  0  0  0  0
    1.1145   -0.1475    1.6610 C   0  0  0  0  0  0  0  0  0  0  0  0
   -0.3257   -0.7963    0.9125 S   0  0  0  0  0  0  0  0  0  0  0  0
   -1.3622   -0.1022    2.1308 C   0  0  0  0  0  0  0  0  0  0  0  0
   -0.6082    0.5810    3.0631 C   0  0  0  0  0  0  0  0  0  0  0  0
    0.7830    0.5568    2.8003 C   0  0  0  0  0  0  0  0  0  0  0  0
    1.6351    1.1920    3.6457 O   0  0  0  0  0  0  0  0  0  0  0  0
   -1.2296    1.4313    4.4692 S   0  0  0  0  0  0  0  0  0  0  0  0
   -2.7690   -0.2693    2.0418 C   0  0  0  0  0  0  0  0  0  0  0  0
   -3.4278   -1.2240    0.7134 S   0  0  0  0  0  0  0  0  0  0  0  0
   -5.0306   -0.9026    1.2627 C   0  0  0  0  0  0  0  0  0  0  0  0
   -6.3691   -1.1371    0.9511 C   0  0  0  0  0  0  0  0  0  0  0  0
   -7.1417   -0.4740    1.9253 C   0  0  0  0  0  0  0  0  0  0  0  0
   -6.3146    0.1333    2.8308 N   0  0  0  0  0  0  0  0  0  0  0  0
   -6.7212    1.0049    3.9021 C   0  0  0  0  0  0  0  0  0  0  0  0
   -6.8673    2.4476    3.4223 C   0  0  0  0  0  0  0  0  0  0  0  0
   -5.0272   -0.1023    2.4246 C   0  0  0  0  0  0  0  0  0  0  0  0
   -3.7475    0.2507    2.8619 C   0  0  0  0  0  0  0  0  0  0  0  0
   -8.5222   -0.5951    1.7304 C   0  0  0  0  0  0  0  0  0  0  0  0
   -8.8234   -1.3453    0.6172 C   0  0  0  0  0  0  0  0  0  0  0  0
   -7.3716   -1.9250   -0.2109 S   0  0  0  0  0  0  0  0  0  0  0  0
  -10.1345   -1.6259    0.1348 C   0  0  0  0  0  0  0  0  0  0  0  0
  -11.5075   -0.9209    0.9566 S   0  0  0  0  0  0  0  0  0  0  0  0
  -12.6319   -1.6526   -0.1548 C   0  0  0  0  0  0  0  0  0  0  0  0
  -11.9671   -2.3970   -1.1009 C   0  0  0  0  0  0  0  0  0  0  0  0
  -10.5561   -2.3855   -0.9354 C   0  0  0  0  0  0  0  0  0  0  0  0
   -9.7758   -3.0717   -1.8067 O   0  0  0  0  0  0  0  0  0  0  0  0
  -12.7125   -3.2118   -2.4607 S   0  0  0  0  0  0  0  0  0  0  0  0
  -14.0312   -1.4100   -0.0130 C   0  0  0  0  0  0  0  0  0  0  0  0
  -14.6099    0.0899    0.6620 S   0  0  0  0  0  0  0  0  0  0  0  0
  -16.2470   -0.3822    0.4393 C   0  0  0  0  0  0  0  0  0  0  0  0
  -16.3453   -1.6217   -0.1110 C   0  0  0  0  0  0  0  0  0  0  0  0
  -15.0834   -2.2274   -0.3623 C   0  0  0  0  0  0  0  0  0  0  0  0
  -14.9141   -3.4827   -0.8272 O   0  0  0  0  0  0  0  0  0  0  0  0
  -17.8521   -2.4669   -0.4922 S   0  0  0  0  0  0  0  0  0  0  0  0
   16.2492   -0.9869   -4.7484 H   0  0  0  0  0  0  0  0  0  0  0  0
   14.6435    1.0323   -0.3683 H   0  0  0  0  0  0  0  0  0  0  0  0
   13.0352    1.0235    0.3834 H   0  0  0  0  0  0  0  0  0  0  0  0
   12.3124    2.8604   -1.1498 H   0  0  0  0  0  0  0  0  0  0  0  0
   13.7246    3.3479   -0.2045 H   0  0  0  0  0  0  0  0  0  0  0  0
   13.9118    2.8722   -1.8974 H   0  0  0  0  0  0  0  0  0  0  0  0
   15.9747    0.4110   -2.5637 H   0  0  0  0  0  0  0  0  0  0  0  0
   10.4558    0.5784   -0.1360 H   0  0  0  0  0  0  0  0  0  0  0  0
    3.3761   -3.1021   -2.1794 H   0  0  0  0  0  0  0  0  0  0  0  0
    5.0202   -3.1849   -2.8458 H   0  0  0  0  0  0  0  0  0  0  0  0
    4.6312   -1.0395   -4.0659 H   0  0  0  0  0  0  0  0  0  0  0  0
    2.9983   -0.9500   -3.3981 H   0  0  0  0  0  0  0  0  0  0  0  0
    3.4232   -2.2474   -4.5208 H   0  0  0  0  0  0  0  0  0  0  0  0
    7.3947   -2.0393   -2.7893 H   0  0  0  0  0  0  0  0  0  0  0  0
    1.8117   -1.6727   -0.5735 H   0  0  0  0  0  0  0  0  0  0  0  0
    2.5460    1.0899    3.3477 H   0  0  0  0  0  0  0  0  0  0  0  0
   -0.0215    1.8079    4.8771 H   0  0  0  0  0  0  0  0  0  0  0  0
   -5.9690    0.9457    4.6931 H   0  0  0  0  0  0  0  0  0  0  0  0
   -7.6736    0.6403    4.2962 H   0  0  0  0  0  0  0  0  0  0  0  0
   -7.6146    2.5083    2.6344 H   0  0  0  0  0  0  0  0  0  0  0  0
   -5.9198    2.8104    3.0311 H   0  0  0  0  0  0  0  0  0  0  0  0
   -7.1738    3.0860    4.2461 H   0  0  0  0  0  0  0  0  0  0  0  0
   -3.5411    0.8601    3.7202 H   0  0  0  0  0  0  0  0  0  0  0  0
   -9.2834   -0.1610    2.3528 H   0  0  0  0  0  0  0  0  0  0  0  0
   -8.8449   -2.9807   -1.5734 H   0  0  0  0  0  0  0  0  0  0  0  0
  -11.5379   -3.5437   -2.9951 H   0  0  0  0  0  0  0  0  0  0  0  0
  -17.0379    0.2799    0.7286 H   0  0  0  0  0  0  0  0  0  0  0  0
  -15.7644   -3.8510   -1.1001 H   0  0  0  0  0  0  0  0  0  0  0  0
  -18.6520   -1.4765   -0.1167 H   0  0  0  0  0  0  0  0  0  0  0  0
  1  2  1  0  0  0  0
  2  3  1  0  0  0  0
  3  4  1  0  0  0  0
  4  5  2  0  0  0  0
  5  6  1  0  0  0  0
  6  7  1  0  0  0  0
  7  8  1  0  0  0  0
  6  9  1  0  0  0  0
  9 10  1  0  0  0  0
  5 11  1  0  0  0  0
 11 12  2  0  0  0  0
 12 13  1  0  0  0  0
 12 14  1  0  0  0  0
 14 15  1  0  0  0  0
 15 16  1  0  0  0  0
 16 17  1  0  0  0  0
 17 18  2  0  0  0  0
 18 19  1  0  0  0  0
 19 20  1  0  0  0  0
 20 21  1  0  0  0  0
 19 22  1  0  0  0  0
 22 23  1  0  0  0  0
 18 24  1  0  0  0  0
 24 25  2  0  0  0  0
 25 26  1  0  0  0  0
 25 27  1  0  0  0  0
 27 28  1  0  0  0  0
 28 29  1  0  0  0  0
 29 30  2  0  0  0  0
 30 31  1  0  0  0  0
 31 32  1  0  0  0  0
 30 33  1  0  0  0  0
 29 34  1  0  0  0  0
 34 35  1  0  0  0  0
 35 36  1  0  0  0  0
 36 37  1  0  0  0  0
 37 38  2  0  0  0  0
 38 39  1  0  0  0  0
 39 40  1  0  0  0  0
 40 41  1  0  0  0  0
 39 42  1  0  0  0  0
 42 43  1  0  0  0  0
 38 44  1  0  0  0  0
 44 45  2  0  0  0  0
 45 46  1  0  0  0  0
 45 47  1  0  0  0  0
 47 48  1  0  0  0  0
 48 49  1  0  0  0  0
 49 50  2  0  0  0  0
 50 51  1  0  0  0  0
 51 52  1  0  0  0  0
 50 53  1  0  0  0  0
 49 54  1  0  0  0  0
 54 55  1  0  0  0  0
 55 56  1  0  0  0  0
 56 57  2  0  0  0  0
 57 58  1  0  0  0  0
 58 59  1  0  0  0  0
 57 60  1  0  0  0  0
 10  1  2  0  0  0  0
 23 14  2  0  0  0  0
 31 27  2  0  0  0  0
 43 34  2  0  0  0  0
 51 47  2  0  0  0  0
 58 54  2  0  0  0  0
  9  3  2  0  0  0  0
 22 16  2  0  0  0  0
 42 36  2  0  0  0  0
 13  4  1  0  0  0  0
 26 17  1  0  0  0  0
 46 37  1  0  0  0  0
  1 61  1  0  0  0  0
  7 62  1  0  0  0  0
  7 63  1  0  0  0  0
  8 64  1  0  0  0  0
  8 65  1  0  0  0  0
  8 66  1  0  0  0  0
 10 67  1  0  0  0  0
 11 68  1  0  0  0  0
 20 69  1  0  0  0  0
 20 70  1  0  0  0  0
 21 71  1  0  0  0  0
 21 72  1  0  0  0  0
 21 73  1  0  0  0  0
 23 74  1  0  0  0  0
 24 75  1  0  0  0  0
 32 76  1  0  0  0  0
 33 77  1  0  0  0  0
 40 78  1  0  0  0  0
 40 79  1  0  0  0  0
 41 80  1  0  0  0  0
 41 81  1  0  0  0  0
 41 82  1  0  0  0  0
 43 83  1  0  0  0  0
 44 84  1  0  0  0  0
 52 85  1  0  0  0  0
 53 86  1  0  0  0  0
 56 87  1  0  0  0  0
 59 88  1  0  0  0  0
 60 89  1  0  0  0  0
M  END
