111

C         -6.80420       13.35870        9.17940
S         -6.36470       11.84600        9.87900
C         -6.66030       11.00420        8.37480
C         -7.07840       11.88780        7.40570
C         -7.15720       13.23060        7.87430
O         -7.55160       14.23450        7.04320
S         -7.48390       11.47030        5.75070
C         -6.44190        9.60200        8.30210
S         -6.71640        8.71920        6.80630
C         -6.20620        7.25920        7.56690
C         -5.98230        5.90770        7.29920
C         -5.50200        5.33080        8.49220
N         -5.45340        6.28280        9.47920
C         -4.89610        6.11650       10.79480
C         -3.38830        6.36530       10.80190
C         -5.85540        7.46770        8.91660
C         -5.99220        8.79590        9.32720
C         -5.18190        3.97440        8.36870
C         -5.41040        3.51280        7.08900
S         -6.05360        4.75460        6.02110
C         -5.11050        2.22860        6.55570
S         -5.40560        1.92360        4.84840
C         -4.67480        0.37030        4.98960
C         -4.26540       -0.71420        4.21460
C         -3.60640       -1.60960        5.08080
N         -3.60860       -1.10120        6.35600
C         -3.11700       -1.75970        7.53610
C         -4.19230       -2.63110        8.18390
C         -4.25830        0.10730        6.31010
C         -4.51360        1.16130        7.19470
C         -3.03370       -2.70370        4.42110
C         -3.24770       -2.64490        3.05990
S         -4.21070       -1.25170        2.57960
C         -2.66860       -3.45160        2.04060
S         -3.14420       -3.18020        0.36810
C         -1.87790       -4.21740       -0.17020
C         -1.21850       -4.61290       -1.33280
C         -0.11420       -5.39090       -0.93150
N         -0.09620       -5.49240        0.43630
C          0.82530       -6.27160        1.21860
C          0.32740       -7.70330        1.41210
C         -1.16480       -4.77420        0.91110
C         -1.62670       -4.34720        2.16180
C          0.73560       -5.73940       -1.98870
C          0.28520       -5.23960       -3.18930
S         -1.23890       -4.36400       -3.03860
C          0.96230       -5.21490       -4.43790
S          2.68380       -5.59570       -4.50220
C          2.74410       -5.07940       -6.14870
C          3.64220       -4.84360       -7.18960
C          2.89100       -4.32370       -8.26340
N          1.57250       -4.23200       -7.90300
C          0.48300       -3.81870       -8.74700
C         -0.11620       -5.00010       -9.50810
C          1.47240       -4.68860       -6.61540
C          0.47070       -4.76470       -5.64140
C          3.67010       -3.95490       -9.36600
C          5.00930       -4.17170       -9.13880
S          5.32870       -4.88080       -7.55610
C          6.09600       -3.82770       -9.98650
S          5.77440       -3.14720      -11.58090
C          7.46760       -2.95000      -11.84790
C          8.38240       -2.47050      -12.79040
C          9.66190       -2.64070      -12.23310
N          9.55460       -3.19210      -10.98310
C         10.63920       -3.58610      -10.12400
C         11.07400       -5.02640      -10.38970
C          8.22070       -3.39960      -10.74720
C          7.43860       -3.90050       -9.69830
C         10.69810       -2.18990      -13.07500
C         10.19940       -1.69370      -14.23830
S          8.46860       -1.75220      -14.35790
H         -6.77450       14.24950        9.77460
H         -7.54490       15.07090        7.52020
H         -7.76600       12.73170        5.42640
H         -5.39510        6.81820       11.46870
H         -5.11100        5.09840       11.13130
H         -3.17460        7.37880       10.47100
H         -2.88990        5.67060       10.12980
H         -2.99040        6.23200       11.80420
H         -5.77360        9.17780       10.30830
H         -4.78920        3.35790        9.15610
H         -2.25720       -2.37340        7.25310
H         -2.77980       -0.99410        8.24050
H         -4.52750       -3.39440        7.48560
H         -3.79740       -3.11680        9.07220
H         -5.04800       -2.02260        8.46670
H         -4.26150        1.16700        8.23900
H         -2.47610       -3.49040        4.89490
H          0.95000       -5.78300        2.18900
H          1.79080       -6.27700        0.70540
H         -0.63380       -7.70160        1.92100
H          0.20710       -8.19200        0.44810
H          1.03860       -8.27060        2.00620
H         -1.20120       -4.62860        3.10730
H          1.65050       -6.29760       -1.90310
H          0.85980       -3.07110       -9.45020
H         -0.27940       -3.35210       -8.11720
H          0.63980       -5.46470      -10.13690
H         -0.49220       -5.74480       -8.81040
H         -0.93590       -4.66290      -10.13630
H         -0.55890       -4.48650       -5.77630
H          3.30130       -3.52830      -10.28130
H         10.30960       -3.47990       -9.08660
H         11.47600       -2.90300      -10.29420
H         10.24330       -5.70660      -10.21750
H         11.40310       -5.13610      -11.42040
H         11.89260       -5.29800       -9.72880
H          7.80970       -4.28810       -8.76680
H         11.74720       -2.22760      -12.84360
H         10.74970       -1.28420      -15.06180
