
  xtb     03022219253D
 energy: -472.093085197328 gnorm: 0.000511632503 xtb: 6.4.1 (unknown)
233259  0     0  0            999 V2000
   -2.4216   -5.3007    9.3785 C   0  0  0  0  0  0  0  0  0  0  0  0
   -2.6989   -4.0759    8.8858 C   0  0  0  0  0  0  0  0  0  0  0  0
   -4.0887   -3.8804    8.6431 C   0  0  0  0  0  0  0  0  0  0  0  0
   -4.7253   -2.7585    8.0908 C   0  0  0  0  0  0  0  0  0  0  0  0
   -3.9899   -1.5848    7.6466 C   0  0  0  0  0  0  0  0  0  0  0  0
   -2.6685   -1.7198    6.5252 S   0  0  0  0  0  0  0  0  0  0  0  0
   -2.4621   -0.0084    6.4306 C   0  0  0  0  0  0  0  0  0  0  0  0
   -1.3952    0.5929    5.5846 C   0  0  0  0  0  0  0  0  0  0  0  0
   -0.0826    0.7169    6.3616 C   0  0  0  0  0  0  0  0  0  0  0  0
   -3.3552    0.6217    7.2458 C   0  0  0  0  0  0  0  0  0  0  0  0
   -3.4482    2.3256    7.4300 Cl  0  0  0  0  0  0  0  0  0  0  0  0
   -4.2274   -0.2673    7.9300 C   0  0  0  0  0  0  0  0  0  0  0  0
   -5.3936    0.2845    9.0583 Cl  0  0  0  0  0  0  0  0  0  0  0  0
   -6.0999   -2.8485    7.9120 C   0  0  0  0  0  0  0  0  0  0  0  0
   -6.8643   -3.9859    8.2707 C   0  0  0  0  0  0  0  0  0  0  0  0
   -6.2279   -5.0962    8.8538 C   0  0  0  0  0  0  0  0  0  0  0  0
   -6.9756   -6.2741    9.2604 C   0  0  0  0  0  0  0  0  0  0  0  0
   -8.0319   -7.1105    8.1589 S   0  0  0  0  0  0  0  0  0  0  0  0
   -8.4584   -8.3006    9.3412 C   0  0  0  0  0  0  0  0  0  0  0  0
   -9.4419   -9.3739    9.0315 C   0  0  0  0  0  0  0  0  0  0  0  0
  -10.8763   -8.8519    9.1451 C   0  0  0  0  0  0  0  0  0  0  0  0
   -7.8246   -8.0422   10.5192 C   0  0  0  0  0  0  0  0  0  0  0  0
   -6.9798   -6.8995   10.4766 C   0  0  0  0  0  0  0  0  0  0  0  0
   -6.1365   -6.3347   11.8567 Cl  0  0  0  0  0  0  0  0  0  0  0  0
   -8.0078   -8.9948   11.9342 Cl  0  0  0  0  0  0  0  0  0  0  0  0
   -4.8486   -5.0179    9.0114 C   0  0  0  0  0  0  0  0  0  0  0  0
   -3.8190   -6.2926    9.5986 S   0  0  0  0  0  0  0  0  0  0  0  0
   -8.2331   -3.8210    7.9564 C   0  0  0  0  0  0  0  0  0  0  0  0
   -8.5220   -2.6227    7.3595 C   0  0  0  0  0  0  0  0  0  0  0  0
   -7.0891   -1.6346    7.1675 S   0  0  0  0  0  0  0  0  0  0  0  0
   -9.7828   -2.2069    6.8511 C   0  0  0  0  0  0  0  0  0  0  0  0
  -11.0994   -3.3429    6.7942 S   0  0  0  0  0  0  0  0  0  0  0  0
  -12.0806   -2.2986    5.8353 C   0  0  0  0  0  0  0  0  0  0  0  0
  -11.4712   -1.0574    5.6898 C   0  0  0  0  0  0  0  0  0  0  0  0
  -10.1515   -0.9977    6.2566 C   0  0  0  0  0  0  0  0  0  0  0  0
   -9.4114    0.1915    6.1036 C   0  0  0  0  0  0  0  0  0  0  0  0
   -9.9733    1.2732    5.4829 C   0  0  0  0  0  0  0  0  0  0  0  0
   -9.1104    2.3919    5.1680 N   0  0  0  0  0  4  0  0  0  0  0  0
   -8.2612    2.6844    5.9746 O   0  0  0  0  0  1  0  0  0  0  0  0
   -9.2574    2.8885    4.0746 O   0  0  0  0  0  0  0  0  0  0  0  0
  -11.3236    1.2425    5.0312 C   0  0  0  0  0  0  0  0  0  0  0  0
  -12.0152    2.4582    4.6729 N   0  0  0  0  0  4  0  0  0  0  0  0
  -12.9931    2.3537    3.9684 O   0  0  0  0  0  1  0  0  0  0  0  0
  -11.6106    3.4835    5.1720 O   0  0  0  0  0  0  0  0  0  0  0  0
  -12.0466    0.0857    5.1035 C   0  0  0  0  0  0  0  0  0  0  0  0
  -13.2138   -2.7178    5.0272 C   0  0  0  0  0  0  0  0  0  0  0  0
  -13.1047   -2.6538    3.6907 C   0  0  0  0  0  0  0  0  0  0  0  0
  -11.8417   -2.3939    3.0224 C   0  0  0  0  0  0  0  0  0  0  0  0
  -11.5517   -1.6114    1.9511 C   0  0  0  0  0  0  0  0  0  0  0  0
  -10.1621   -1.5635    1.6340 C   0  0  0  0  0  0  0  0  0  0  0  0
   -9.5051   -0.8198    0.6377 C   0  0  0  0  0  0  0  0  0  0  0  0
  -10.2277    0.0688   -0.2569 C   0  0  0  0  0  0  0  0  0  0  0  0
  -10.0798   -0.0746   -1.9836 S   0  0  0  0  0  0  0  0  0  0  0  0
  -11.1570    1.2500   -2.2616 C   0  0  0  0  0  0  0  0  0  0  0  0
  -11.5434    1.6560   -3.6406 C   0  0  0  0  0  0  0  0  0  0  0  0
  -12.7658    0.8686   -4.1189 C   0  0  0  0  0  0  0  0  0  0  0  0
  -11.5982    1.7614   -1.0773 C   0  0  0  0  0  0  0  0  0  0  0  0
  -12.6803    3.0868   -0.9494 Cl  0  0  0  0  0  0  0  0  0  0  0  0
  -11.0706    1.0966    0.0627 C   0  0  0  0  0  0  0  0  0  0  0  0
  -11.4030    1.6057    1.6630 Cl  0  0  0  0  0  0  0  0  0  0  0  0
   -8.1262   -0.9708    0.5434 C   0  0  0  0  0  0  0  0  0  0  0  0
   -7.3755   -1.8129    1.4011 C   0  0  0  0  0  0  0  0  0  0  0  0
   -8.0217   -2.5367    2.4178 C   0  0  0  0  0  0  0  0  0  0  0  0
   -7.2930   -3.4121    3.3189 C   0  0  0  0  0  0  0  0  0  0  0  0
   -7.8595   -5.0364    3.6045 S   0  0  0  0  0  0  0  0  0  0  0  0
   -6.4931   -5.4304    4.5833 C   0  0  0  0  0  0  0  0  0  0  0  0
   -6.2937   -6.7981    5.1335 C   0  0  0  0  0  0  0  0  0  0  0  0
   -5.4542   -7.6537    4.1817 C   0  0  0  0  0  0  0  0  0  0  0  0
   -5.6574   -4.3588    4.6807 C   0  0  0  0  0  0  0  0  0  0  0  0
   -6.1175   -3.2040    3.9921 C   0  0  0  0  0  0  0  0  0  0  0  0
   -5.3096   -1.6909    4.1157 Cl  0  0  0  0  0  0  0  0  0  0  0  0
   -4.1555   -4.4220    5.5083 Cl  0  0  0  0  0  0  0  0  0  0  0  0
   -9.4023   -2.4021    2.4828 C   0  0  0  0  0  0  0  0  0  0  0  0
  -10.4063   -3.2016    3.6409 S   0  0  0  0  0  0  0  0  0  0  0  0
   -6.0002   -1.7996    1.0786 C   0  0  0  0  0  0  0  0  0  0  0  0
   -5.6845   -0.9442    0.0648 C   0  0  0  0  0  0  0  0  0  0  0  0
   -7.0943   -0.1452   -0.5938 S   0  0  0  0  0  0  0  0  0  0  0  0
   -4.3666   -0.6761   -0.4078 C   0  0  0  0  0  0  0  0  0  0  0  0
   -3.9608    0.0730   -1.4707 C   0  0  0  0  0  0  0  0  0  0  0  0
   -2.5513    0.1159   -1.6226 C   0  0  0  0  0  0  0  0  0  0  0  0
   -1.7974    0.7421   -2.6314 C   0  0  0  0  0  0  0  0  0  0  0  0
   -2.4424    1.3971   -3.7561 C   0  0  0  0  0  0  0  0  0  0  0  0
   -2.0301    3.0206   -4.2208 S   0  0  0  0  0  0  0  0  0  0  0  0
   -3.1584    3.0152   -5.5317 C   0  0  0  0  0  0  0  0  0  0  0  0
   -3.3630    4.2221   -6.3788 C   0  0  0  0  0  0  0  0  0  0  0  0
   -4.3697    5.1786   -5.7350 C   0  0  0  0  0  0  0  0  0  0  0  0
   -3.8109    1.8195   -5.5914 C   0  0  0  0  0  0  0  0  0  0  0  0
   -5.0047    1.4378   -6.7636 Cl  0  0  0  0  0  0  0  0  0  0  0  0
   -3.4052    0.8976   -4.5903 C   0  0  0  0  0  0  0  0  0  0  0  0
   -4.0135   -0.7063   -4.5154 Cl  0  0  0  0  0  0  0  0  0  0  0  0
   -0.4148    0.6866   -2.5109 C   0  0  0  0  0  0  0  0  0  0  0  0
    0.2457    0.0185   -1.4496 C   0  0  0  0  0  0  0  0  0  0  0  0
   -0.5060   -0.6593   -0.4750 C   0  0  0  0  0  0  0  0  0  0  0  0
    0.1203   -1.4187    0.5934 C   0  0  0  0  0  0  0  0  0  0  0  0
   -0.3623   -1.1960    2.2498 S   0  0  0  0  0  0  0  0  0  0  0  0
    0.7312   -2.4109    2.8178 C   0  0  0  0  0  0  0  0  0  0  0  0
    0.7657   -2.7984    4.2544 C   0  0  0  0  0  0  0  0  0  0  0  0
   -0.4032   -3.7282    4.5878 C   0  0  0  0  0  0  0  0  0  0  0  0
    1.4205   -2.9497    1.7731 C   0  0  0  0  0  0  0  0  0  0  0  0
    1.0811   -2.3883    0.5118 C   0  0  0  0  0  0  0  0  0  0  0  0
    1.7567   -2.9631   -0.9583 Cl  0  0  0  0  0  0  0  0  0  0  0  0
    2.5933   -4.1917    1.9376 Cl  0  0  0  0  0  0  0  0  0  0  0  0
   -1.8879   -0.5837   -0.5853 C   0  0  0  0  0  0  0  0  0  0  0  0
   -3.0184   -1.3454    0.4915 S   0  0  0  0  0  0  0  0  0  0  0  0
    1.6530    0.1328   -1.5481 C   0  0  0  0  0  0  0  0  0  0  0  0
    2.0672    0.8043   -2.6598 C   0  0  0  0  0  0  0  0  0  0  0  0
    0.7255    1.3763   -3.6310 S   0  0  0  0  0  0  0  0  0  0  0  0
    3.4081    1.0364   -3.0820 C   0  0  0  0  0  0  0  0  0  0  0  0
    3.8266    1.6782   -4.2096 C   0  0  0  0  0  0  0  0  0  0  0  0
    5.2349    1.7072   -4.3536 C   0  0  0  0  0  0  0  0  0  0  0  0
    5.9893    2.2499   -5.4096 C   0  0  0  0  0  0  0  0  0  0  0  0
    5.3611    3.0150   -6.4716 C   0  0  0  0  0  0  0  0  0  0  0  0
    5.6954    2.6956   -8.1476 S   0  0  0  0  0  0  0  0  0  0  0  0
    4.6566    3.9722   -8.6799 C   0  0  0  0  0  0  0  0  0  0  0  0
    4.4333    4.2330  -10.1285 C   0  0  0  0  0  0  0  0  0  0  0  0
    3.3028    3.3575  -10.6748 C   0  0  0  0  0  0  0  0  0  0  0  0
    4.0860    4.5960   -7.6105 C   0  0  0  0  0  0  0  0  0  0  0  0
    2.9957    5.9143   -7.7425 Cl  0  0  0  0  0  0  0  0  0  0  0  0
    4.4867    4.0620   -6.3570 C   0  0  0  0  0  0  0  0  0  0  0  0
    3.9815    4.7453   -4.8652 Cl  0  0  0  0  0  0  0  0  0  0  0  0
    7.3606    2.0346   -5.3762 C   0  0  0  0  0  0  0  0  0  0  0  0
    8.0129    1.3599   -4.3150 C   0  0  0  0  0  0  0  0  0  0  0  0
    7.2603    0.8330   -3.2508 C   0  0  0  0  0  0  0  0  0  0  0  0
    7.8925    0.0862   -2.1769 C   0  0  0  0  0  0  0  0  0  0  0  0
    7.6012    0.4753   -0.5080 S   0  0  0  0  0  0  0  0  0  0  0  0
    8.6358   -0.7938    0.0496 C   0  0  0  0  0  0  0  0  0  0  0  0
    8.8963   -0.9967    1.5013 C   0  0  0  0  0  0  0  0  0  0  0  0
   10.0591   -0.1215    1.9757 C   0  0  0  0  0  0  0  0  0  0  0  0
    9.1706   -1.4692   -1.0070 C   0  0  0  0  0  0  0  0  0  0  0  0
    8.7475   -0.9779   -2.2710 C   0  0  0  0  0  0  0  0  0  0  0  0
    9.2108   -1.7216   -3.7476 Cl  0  0  0  0  0  0  0  0  0  0  0  0
   10.2473   -2.7955   -0.8492 Cl  0  0  0  0  0  0  0  0  0  0  0  0
    5.8867    1.0297   -3.2940 C   0  0  0  0  0  0  0  0  0  0  0  0
    4.7446    0.4196   -2.1312 S   0  0  0  0  0  0  0  0  0  0  0  0
    9.4184    1.3343   -4.4905 C   0  0  0  0  0  0  0  0  0  0  0  0
    9.8309    1.9153   -5.6516 C   0  0  0  0  0  0  0  0  0  0  0  0
    8.4975    2.5773   -6.5765 S   0  0  0  0  0  0  0  0  0  0  0  0
   11.1563    1.9988   -6.1691 C   0  0  0  0  0  0  0  0  0  0  0  0
   11.5293    2.4600   -7.3958 C   0  0  0  0  0  0  0  0  0  0  0  0
   12.9238    2.3810   -7.6300 C   0  0  0  0  0  0  0  0  0  0  0  0
   13.6335    2.7777   -8.7755 C   0  0  0  0  0  0  0  0  0  0  0  0
   12.9422    3.3509   -9.9188 C   0  0  0  0  0  0  0  0  0  0  0  0
   11.8719    4.7101   -9.7341 S   0  0  0  0  0  0  0  0  0  0  0  0
   11.4798    4.7340  -11.4192 C   0  0  0  0  0  0  0  0  0  0  0  0
   10.4740    5.6901  -11.9580 C   0  0  0  0  0  0  0  0  0  0  0  0
    9.0521    5.2013  -11.6689 C   0  0  0  0  0  0  0  0  0  0  0  0
   12.1469    3.7419  -12.0729 C   0  0  0  0  0  0  0  0  0  0  0  0
   12.0077    3.4419  -13.7565 Cl  0  0  0  0  0  0  0  0  0  0  0  0
   12.9813    2.9601  -11.2283 C   0  0  0  0  0  0  0  0  0  0  0  0
   13.8592    1.6073  -11.8073 Cl  0  0  0  0  0  0  0  0  0  0  0  0
   15.0122    2.6030   -8.7533 C   0  0  0  0  0  0  0  0  0  0  0  0
   15.6987    2.0376   -7.6513 C   0  0  0  0  0  0  0  0  0  0  0  0
   14.9857    1.6158   -6.5184 C   0  0  0  0  0  0  0  0  0  0  0  0
   15.6520    1.0231   -5.3687 C   0  0  0  0  0  0  0  0  0  0  0  0
   16.9407    1.8487   -4.5428 S   0  0  0  0  0  0  0  0  0  0  0  0
   17.1133    0.5813   -3.3770 C   0  0  0  0  0  0  0  0  0  0  0  0
   18.0904    0.6868   -2.2587 C   0  0  0  0  0  0  0  0  0  0  0  0
   17.4794    1.4306   -1.0685 C   0  0  0  0  0  0  0  0  0  0  0  0
   16.2145   -0.4126   -3.6236 C   0  0  0  0  0  0  0  0  0  0  0  0
   15.3863   -0.1680   -4.7525 C   0  0  0  0  0  0  0  0  0  0  0  0
   14.2345   -1.3084   -5.3093 Cl  0  0  0  0  0  0  0  0  0  0  0  0
   16.0834   -1.8390   -2.6793 Cl  0  0  0  0  0  0  0  0  0  0  0  0
   13.6096    1.8061   -6.5321 C   0  0  0  0  0  0  0  0  0  0  0  0
   12.5179    1.4251   -5.2312 S   0  0  0  0  0  0  0  0  0  0  0  0
   17.1034    1.9759   -7.8850 C   0  0  0  0  0  0  0  0  0  0  0  0
   17.4579    2.4929   -9.0793 C   0  0  0  0  0  0  0  0  0  0  0  0
   16.1218    3.0742  -10.0083 S   0  0  0  0  0  0  0  0  0  0  0  0
   -1.4628   -5.7028    9.6419 H   0  0  0  0  0  0  0  0  0  0  0  0
   -1.9539   -3.3266    8.6919 H   0  0  0  0  0  0  0  0  0  0  0  0
   -1.7210    1.5837    5.2636 H   0  0  0  0  0  0  0  0  0  0  0  0
   -1.2420   -0.0263    4.6980 H   0  0  0  0  0  0  0  0  0  0  0  0
   -0.2137    1.3728    7.2183 H   0  0  0  0  0  0  0  0  0  0  0  0
    0.6917    1.1302    5.7210 H   0  0  0  0  0  0  0  0  0  0  0  0
    0.2411   -0.2578    6.7206 H   0  0  0  0  0  0  0  0  0  0  0  0
   -9.2704   -9.7435    8.0188 H   0  0  0  0  0  0  0  0  0  0  0  0
   -9.2935  -10.1953    9.7343 H   0  0  0  0  0  0  0  0  0  0  0  0
  -11.5812   -9.6484    8.9236 H   0  0  0  0  0  0  0  0  0  0  0  0
  -11.0664   -8.4890   10.1520 H   0  0  0  0  0  0  0  0  0  0  0  0
  -11.0379   -8.0366    8.4437 H   0  0  0  0  0  0  0  0  0  0  0  0
   -8.9859   -4.5609    8.1598 H   0  0  0  0  0  0  0  0  0  0  0  0
   -8.3956    0.2732    6.4551 H   0  0  0  0  0  0  0  0  0  0  0  0
  -13.0712    0.0710    4.7640 H   0  0  0  0  0  0  0  0  0  0  0  0
  -14.1232   -3.0447    5.5084 H   0  0  0  0  0  0  0  0  0  0  0  0
  -13.9620   -2.8437    3.0600 H   0  0  0  0  0  0  0  0  0  0  0  0
  -12.2950   -1.0477    1.4181 H   0  0  0  0  0  0  0  0  0  0  0  0
  -11.7754    2.7226   -3.6391 H   0  0  0  0  0  0  0  0  0  0  0  0
  -10.7071    1.4785   -4.3184 H   0  0  0  0  0  0  0  0  0  0  0  0
  -13.0392    1.1779   -5.1239 H   0  0  0  0  0  0  0  0  0  0  0  0
  -13.6096    1.0468   -3.4574 H   0  0  0  0  0  0  0  0  0  0  0  0
  -12.5483   -0.1969   -4.1277 H   0  0  0  0  0  0  0  0  0  0  0  0
   -5.7841   -6.7184    6.0960 H   0  0  0  0  0  0  0  0  0  0  0  0
   -7.2649   -7.2680    5.2910 H   0  0  0  0  0  0  0  0  0  0  0  0
   -4.4791   -7.1992    4.0278 H   0  0  0  0  0  0  0  0  0  0  0  0
   -5.9513   -7.7463    3.2192 H   0  0  0  0  0  0  0  0  0  0  0  0
   -5.3143   -8.6463    4.6002 H   0  0  0  0  0  0  0  0  0  0  0  0
   -5.2618   -2.4093    1.5649 H   0  0  0  0  0  0  0  0  0  0  0  0
   -4.6518    0.5849   -2.1153 H   0  0  0  0  0  0  0  0  0  0  0  0
   -3.7329    3.9055   -7.3559 H   0  0  0  0  0  0  0  0  0  0  0  0
   -2.4095    4.7352   -6.5136 H   0  0  0  0  0  0  0  0  0  0  0  0
   -5.3284    4.6838   -5.6020 H   0  0  0  0  0  0  0  0  0  0  0  0
   -4.0096    5.5067   -4.7629 H   0  0  0  0  0  0  0  0  0  0  0  0
   -4.5122    6.0506   -6.3673 H   0  0  0  0  0  0  0  0  0  0  0  0
    0.7036   -1.9034    4.8748 H   0  0  0  0  0  0  0  0  0  0  0  0
    1.7109   -3.3036    4.4590 H   0  0  0  0  0  0  0  0  0  0  0  0
   -0.3886   -3.9881    5.6426 H   0  0  0  0  0  0  0  0  0  0  0  0
   -0.3380   -4.6412    4.0017 H   0  0  0  0  0  0  0  0  0  0  0  0
   -1.3487   -3.2392    4.3675 H   0  0  0  0  0  0  0  0  0  0  0  0
    2.3404   -0.2629   -0.8228 H   0  0  0  0  0  0  0  0  0  0  0  0
    3.1402    2.0921   -4.9256 H   0  0  0  0  0  0  0  0  0  0  0  0
    4.1750    5.2856  -10.2591 H   0  0  0  0  0  0  0  0  0  0  0  0
    5.3527    4.0259  -10.6785 H   0  0  0  0  0  0  0  0  0  0  0  0
    2.3762    3.5651  -10.1458 H   0  0  0  0  0  0  0  0  0  0  0  0
    3.1531    3.5581  -11.7321 H   0  0  0  0  0  0  0  0  0  0  0  0
    3.5469    2.3054  -10.5495 H   0  0  0  0  0  0  0  0  0  0  0  0
    7.9978   -0.7474    2.0679 H   0  0  0  0  0  0  0  0  0  0  0  0
    9.1382   -2.0477    1.6704 H   0  0  0  0  0  0  0  0  0  0  0  0
    9.8315    0.9291    1.8117 H   0  0  0  0  0  0  0  0  0  0  0  0
   10.9650   -0.3707    1.4292 H   0  0  0  0  0  0  0  0  0  0  0  0
   10.2369   -0.2796    3.0359 H   0  0  0  0  0  0  0  0  0  0  0  0
   10.1049    0.9022   -3.7857 H   0  0  0  0  0  0  0  0  0  0  0  0
   10.8178    2.8333   -8.1095 H   0  0  0  0  0  0  0  0  0  0  0  0
   10.6199    6.6698  -11.4994 H   0  0  0  0  0  0  0  0  0  0  0  0
   10.6201    5.7818  -13.0354 H   0  0  0  0  0  0  0  0  0  0  0  0
    8.8878    4.2296  -12.1282 H   0  0  0  0  0  0  0  0  0  0  0  0
    8.3273    5.9044  -12.0703 H   0  0  0  0  0  0  0  0  0  0  0  0
    8.8947    5.1101  -10.5965 H   0  0  0  0  0  0  0  0  0  0  0  0
   18.9794    1.2183   -2.6022 H   0  0  0  0  0  0  0  0  0  0  0  0
   18.3797   -0.3196   -1.9505 H   0  0  0  0  0  0  0  0  0  0  0  0
   17.1863    2.4359   -1.3620 H   0  0  0  0  0  0  0  0  0  0  0  0
   16.6001    0.9036   -0.7071 H   0  0  0  0  0  0  0  0  0  0  0  0
   18.2021    1.4990   -0.2601 H   0  0  0  0  0  0  0  0  0  0  0  0
   17.8036    1.5621   -7.1833 H   0  0  0  0  0  0  0  0  0  0  0  0
   18.4431    2.5699   -9.4962 H   0  0  0  0  0  0  0  0  0  0  0  0
  1  2  2  0  0  0  0
  2  3  1  0  0  0  0
  3  4  2  0  0  0  0
  4  5  1  0  0  0  0
  5  6  1  0  0  0  0
  6  7  1  0  0  0  0
  7  8  1  0  0  0  0
  8  9  1  0  0  0  0
  7 10  2  0  0  0  0
 10 11  1  0  0  0  0
 10 12  1  0  0  0  0
 12 13  1  0  0  0  0
  4 14  1  0  0  0  0
 14 15  2  0  0  0  0
 15 16  1  0  0  0  0
 16 17  1  0  0  0  0
 17 18  1  0  0  0  0
 18 19  1  0  0  0  0
 19 20  1  0  0  0  0
 20 21  1  0  0  0  0
 19 22  2  0  0  0  0
 22 23  1  0  0  0  0
 23 24  1  0  0  0  0
 22 25  1  0  0  0  0
 16 26  2  0  0  0  0
 26 27  1  0  0  0  0
 15 28  1  0  0  0  0
 28 29  2  0  0  0  0
 29 30  1  0  0  0  0
 29 31  1  0  0  0  0
 31 32  1  0  0  0  0
 32 33  1  0  0  0  0
 33 34  2  0  0  0  0
 34 35  1  0  0  0  0
 35 36  1  0  0  0  0
 36 37  2  0  0  0  0
 37 38  1  0  0  0  0
 38 39  1  0  0  0  0
 38 40  2  0  0  0  0
 37 41  1  0  0  0  0
 41 42  1  0  0  0  0
 42 43  1  0  0  0  0
 42 44  2  0  0  0  0
 41 45  2  0  0  0  0
 33 46  1  0  0  0  0
 46 47  2  0  0  0  0
 47 48  1  0  0  0  0
 48 49  2  0  0  0  0
 49 50  1  0  0  0  0
 50 51  2  0  0  0  0
 51 52  1  0  0  0  0
 52 53  1  0  0  0  0
 53 54  1  0  0  0  0
 54 55  1  0  0  0  0
 55 56  1  0  0  0  0
 54 57  2  0  0  0  0
 57 58  1  0  0  0  0
 57 59  1  0  0  0  0
 59 60  1  0  0  0  0
 51 61  1  0  0  0  0
 61 62  2  0  0  0  0
 62 63  1  0  0  0  0
 63 64  1  0  0  0  0
 64 65  1  0  0  0  0
 65 66  1  0  0  0  0
 66 67  1  0  0  0  0
 67 68  1  0  0  0  0
 66 69  2  0  0  0  0
 69 70  1  0  0  0  0
 70 71  1  0  0  0  0
 69 72  1  0  0  0  0
 63 73  2  0  0  0  0
 73 74  1  0  0  0  0
 62 75  1  0  0  0  0
 75 76  2  0  0  0  0
 76 77  1  0  0  0  0
 76 78  1  0  0  0  0
 78 79  2  0  0  0  0
 79 80  1  0  0  0  0
 80 81  2  0  0  0  0
 81 82  1  0  0  0  0
 82 83  1  0  0  0  0
 83 84  1  0  0  0  0
 84 85  1  0  0  0  0
 85 86  1  0  0  0  0
 84 87  2  0  0  0  0
 87 88  1  0  0  0  0
 87 89  1  0  0  0  0
 89 90  1  0  0  0  0
 81 91  1  0  0  0  0
 91 92  2  0  0  0  0
 92 93  1  0  0  0  0
 93 94  1  0  0  0  0
 94 95  1  0  0  0  0
 95 96  1  0  0  0  0
 96 97  1  0  0  0  0
 97 98  1  0  0  0  0
 96 99  2  0  0  0  0
 99100  1  0  0  0  0
100101  1  0  0  0  0
 99102  1  0  0  0  0
 93103  2  0  0  0  0
103104  1  0  0  0  0
 92105  1  0  0  0  0
105106  2  0  0  0  0
106107  1  0  0  0  0
106108  1  0  0  0  0
108109  2  0  0  0  0
109110  1  0  0  0  0
110111  2  0  0  0  0
111112  1  0  0  0  0
112113  1  0  0  0  0
113114  1  0  0  0  0
114115  1  0  0  0  0
115116  1  0  0  0  0
114117  2  0  0  0  0
117118  1  0  0  0  0
117119  1  0  0  0  0
119120  1  0  0  0  0
111121  1  0  0  0  0
121122  2  0  0  0  0
122123  1  0  0  0  0
123124  1  0  0  0  0
124125  1  0  0  0  0
125126  1  0  0  0  0
126127  1  0  0  0  0
127128  1  0  0  0  0
126129  2  0  0  0  0
129130  1  0  0  0  0
130131  1  0  0  0  0
129132  1  0  0  0  0
123133  2  0  0  0  0
133134  1  0  0  0  0
122135  1  0  0  0  0
135136  2  0  0  0  0
136137  1  0  0  0  0
136138  1  0  0  0  0
138139  2  0  0  0  0
139140  1  0  0  0  0
140141  2  0  0  0  0
141142  1  0  0  0  0
142143  1  0  0  0  0
143144  1  0  0  0  0
144145  1  0  0  0  0
145146  1  0  0  0  0
144147  2  0  0  0  0
147148  1  0  0  0  0
147149  1  0  0  0  0
149150  1  0  0  0  0
141151  1  0  0  0  0
151152  2  0  0  0  0
152153  1  0  0  0  0
153154  1  0  0  0  0
154155  1  0  0  0  0
155156  1  0  0  0  0
156157  1  0  0  0  0
157158  1  0  0  0  0
156159  2  0  0  0  0
159160  1  0  0  0  0
160161  1  0  0  0  0
159162  1  0  0  0  0
153163  2  0  0  0  0
163164  1  0  0  0  0
152165  1  0  0  0  0
165166  2  0  0  0  0
166167  1  0  0  0  0
 27  1  1  0  0  0  0
 35 31  2  0  0  0  0
 74 48  1  0  0  0  0
104 78  1  0  0  0  0
134108  1  0  0  0  0
164138  1  0  0  0  0
 26  3  1  0  0  0  0
 45 34  1  0  0  0  0
 73 50  1  0  0  0  0
103 80  1  0  0  0  0
133110  1  0  0  0  0
163140  1  0  0  0  0
 12  5  2  0  0  0  0
 30 14  1  0  0  0  0
 59 52  2  0  0  0  0
 77 61  1  0  0  0  0
 89 82  2  0  0  0  0
107 91  1  0  0  0  0
119112  2  0  0  0  0
137121  1  0  0  0  0
149142  2  0  0  0  0
167151  1  0  0  0  0
 23 17  2  0  0  0  0
 70 64  2  0  0  0  0
100 94  2  0  0  0  0
130124  2  0  0  0  0
160154  2  0  0  0  0
  1168  1  0  0  0  0
  2169  1  0  0  0  0
  8170  1  0  0  0  0
  8171  1  0  0  0  0
  9172  1  0  0  0  0
  9173  1  0  0  0  0
  9174  1  0  0  0  0
 20175  1  0  0  0  0
 20176  1  0  0  0  0
 21177  1  0  0  0  0
 21178  1  0  0  0  0
 21179  1  0  0  0  0
 28180  1  0  0  0  0
 36181  1  0  0  0  0
 45182  1  0  0  0  0
 46183  1  0  0  0  0
 47184  1  0  0  0  0
 49185  1  0  0  0  0
 55186  1  0  0  0  0
 55187  1  0  0  0  0
 56188  1  0  0  0  0
 56189  1  0  0  0  0
 56190  1  0  0  0  0
 67191  1  0  0  0  0
 67192  1  0  0  0  0
 68193  1  0  0  0  0
 68194  1  0  0  0  0
 68195  1  0  0  0  0
 75196  1  0  0  0  0
 79197  1  0  0  0  0
 85198  1  0  0  0  0
 85199  1  0  0  0  0
 86200  1  0  0  0  0
 86201  1  0  0  0  0
 86202  1  0  0  0  0
 97203  1  0  0  0  0
 97204  1  0  0  0  0
 98205  1  0  0  0  0
 98206  1  0  0  0  0
 98207  1  0  0  0  0
105208  1  0  0  0  0
109209  1  0  0  0  0
115210  1  0  0  0  0
115211  1  0  0  0  0
116212  1  0  0  0  0
116213  1  0  0  0  0
116214  1  0  0  0  0
127215  1  0  0  0  0
127216  1  0  0  0  0
128217  1  0  0  0  0
128218  1  0  0  0  0
128219  1  0  0  0  0
135220  1  0  0  0  0
139221  1  0  0  0  0
145222  1  0  0  0  0
145223  1  0  0  0  0
146224  1  0  0  0  0
146225  1  0  0  0  0
146226  1  0  0  0  0
157227  1  0  0  0  0
157228  1  0  0  0  0
158229  1  0  0  0  0
158230  1  0  0  0  0
158231  1  0  0  0  0
165232  1  0  0  0  0
166233  1  0  0  0  0
M  CHG  1  38   1
M  CHG  1  39  -1
M  CHG  1  42   1
M  CHG  1  43  -1
M  END
