233

C         -2.42160       -5.30070        9.37850
C         -2.69890       -4.07590        8.88580
C         -4.08870       -3.88040        8.64310
C         -4.72530       -2.75850        8.09080
C         -3.98990       -1.58480        7.64660
S         -2.66850       -1.71980        6.52520
C         -2.46210       -0.00840        6.43060
C         -1.39520        0.59290        5.58460
C         -0.08260        0.71690        6.36160
C         -3.35520        0.62170        7.24580
Cl        -3.44820        2.32560        7.43000
C         -4.22740       -0.26730        7.93000
Cl        -5.39360        0.28450        9.05830
C         -6.09990       -2.84850        7.91200
C         -6.86430       -3.98590        8.27070
C         -6.22790       -5.09620        8.85380
C         -6.97560       -6.27410        9.26040
S         -8.03190       -7.11050        8.15890
C         -8.45840       -8.30060        9.34120
C         -9.44190       -9.37390        9.03150
C        -10.87630       -8.85190        9.14510
C         -7.82460       -8.04220       10.51920
C         -6.97980       -6.89950       10.47660
Cl        -6.13650       -6.33470       11.85670
Cl        -8.00780       -8.99480       11.93420
C         -4.84860       -5.01790        9.01140
S         -3.81900       -6.29260        9.59860
C         -8.23310       -3.82100        7.95640
C         -8.52200       -2.62270        7.35950
S         -7.08910       -1.63460        7.16750
C         -9.78280       -2.20690        6.85110
S        -11.09940       -3.34290        6.79420
C        -12.08060       -2.29860        5.83530
C        -11.47120       -1.05740        5.68980
C        -10.15150       -0.99770        6.25660
C         -9.41140        0.19150        6.10360
C         -9.97330        1.27320        5.48290
N         -9.11040        2.39190        5.16800
O         -8.26120        2.68440        5.97460
O         -9.25740        2.88850        4.07460
C        -11.32360        1.24250        5.03120
N        -12.01520        2.45820        4.67290
O        -12.99310        2.35370        3.96840
O        -11.61060        3.48350        5.17200
C        -12.04660        0.08570        5.10350
C        -13.21380       -2.71780        5.02720
C        -13.10470       -2.65380        3.69070
C        -11.84170       -2.39390        3.02240
C        -11.55170       -1.61140        1.95110
C        -10.16210       -1.56350        1.63400
C         -9.50510       -0.81980        0.63770
C        -10.22770        0.06880       -0.25690
S        -10.07980       -0.07460       -1.98360
C        -11.15700        1.25000       -2.26160
C        -11.54340        1.65600       -3.64060
C        -12.76580        0.86860       -4.11890
C        -11.59820        1.76140       -1.07730
Cl       -12.68030        3.08680       -0.94940
C        -11.07060        1.09660        0.06270
Cl       -11.40300        1.60570        1.66300
C         -8.12620       -0.97080        0.54340
C         -7.37550       -1.81290        1.40110
C         -8.02170       -2.53670        2.41780
C         -7.29300       -3.41210        3.31890
S         -7.85950       -5.03640        3.60450
C         -6.49310       -5.43040        4.58330
C         -6.29370       -6.79810        5.13350
C         -5.45420       -7.65370        4.18170
C         -5.65740       -4.35880        4.68070
C         -6.11750       -3.20400        3.99210
Cl        -5.30960       -1.69090        4.11570
Cl        -4.15550       -4.42200        5.50830
C         -9.40230       -2.40210        2.48280
S        -10.40630       -3.20160        3.64090
C         -6.00020       -1.79960        1.07860
C         -5.68450       -0.94420        0.06480
S         -7.09430       -0.14520       -0.59380
C         -4.36660       -0.67610       -0.40780
C         -3.96080        0.07300       -1.47070
C         -2.55130        0.11590       -1.62260
C         -1.79740        0.74210       -2.63140
C         -2.44240        1.39710       -3.75610
S         -2.03010        3.02060       -4.22080
C         -3.15840        3.01520       -5.53170
C         -3.36300        4.22210       -6.37880
C         -4.36970        5.17860       -5.73500
C         -3.81090        1.81950       -5.59140
Cl        -5.00470        1.43780       -6.76360
C         -3.40520        0.89760       -4.59030
Cl        -4.01350       -0.70630       -4.51540
C         -0.41480        0.68660       -2.51090
C          0.24570        0.01850       -1.44960
C         -0.50600       -0.65930       -0.47500
C          0.12030       -1.41870        0.59340
S         -0.36230       -1.19600        2.24980
C          0.73120       -2.41090        2.81780
C          0.76570       -2.79840        4.25440
C         -0.40320       -3.72820        4.58780
C          1.42050       -2.94970        1.77310
C          1.08110       -2.38830        0.51180
Cl         1.75670       -2.96310       -0.95830
Cl         2.59330       -4.19170        1.93760
C         -1.88790       -0.58370       -0.58530
S         -3.01840       -1.34540        0.49150
C          1.65300        0.13280       -1.54810
C          2.06720        0.80430       -2.65980
S          0.72550        1.37630       -3.63100
C          3.40810        1.03640       -3.08200
C          3.82660        1.67820       -4.20960
C          5.23490        1.70720       -4.35360
C          5.98930        2.24990       -5.40960
C          5.36110        3.01500       -6.47160
S          5.69540        2.69560       -8.14760
C          4.65660        3.97220       -8.67990
C          4.43330        4.23300      -10.12850
C          3.30280        3.35750      -10.67480
C          4.08600        4.59600       -7.61050
Cl         2.99570        5.91430       -7.74250
C          4.48670        4.06200       -6.35700
Cl         3.98150        4.74530       -4.86520
C          7.36060        2.03460       -5.37620
C          8.01290        1.35990       -4.31500
C          7.26030        0.83300       -3.25080
C          7.89250        0.08620       -2.17690
S          7.60120        0.47530       -0.50800
C          8.63580       -0.79380        0.04960
C          8.89630       -0.99670        1.50130
C         10.05910       -0.12150        1.97570
C          9.17060       -1.46920       -1.00700
C          8.74750       -0.97790       -2.27100
Cl         9.21080       -1.72160       -3.74760
Cl        10.24730       -2.79550       -0.84920
C          5.88670        1.02970       -3.29400
S          4.74460        0.41960       -2.13120
C          9.41840        1.33430       -4.49050
C          9.83090        1.91530       -5.65160
S          8.49750        2.57730       -6.57650
C         11.15630        1.99880       -6.16910
C         11.52930        2.46000       -7.39580
C         12.92380        2.38100       -7.63000
C         13.63350        2.77770       -8.77550
C         12.94220        3.35090       -9.91880
S         11.87190        4.71010       -9.73410
C         11.47980        4.73400      -11.41920
C         10.47400        5.69010      -11.95800
C          9.05210        5.20130      -11.66890
C         12.14690        3.74190      -12.07290
Cl        12.00770        3.44190      -13.75650
C         12.98130        2.96010      -11.22830
Cl        13.85920        1.60730      -11.80730
C         15.01220        2.60300       -8.75330
C         15.69870        2.03760       -7.65130
C         14.98570        1.61580       -6.51840
C         15.65200        1.02310       -5.36870
S         16.94070        1.84870       -4.54280
C         17.11330        0.58130       -3.37700
C         18.09040        0.68680       -2.25870
C         17.47940        1.43060       -1.06850
C         16.21450       -0.41260       -3.62360
C         15.38630       -0.16800       -4.75250
Cl        14.23450       -1.30840       -5.30930
Cl        16.08340       -1.83900       -2.67930
C         13.60960        1.80610       -6.53210
S         12.51790        1.42510       -5.23120
C         17.10340        1.97590       -7.88500
C         17.45790        2.49290       -9.07930
S         16.12180        3.07420      -10.00830
H         -1.46280       -5.70280        9.64190
H         -1.95390       -3.32660        8.69190
H         -1.72100        1.58370        5.26360
H         -1.24200       -0.02630        4.69800
H         -0.21370        1.37280        7.21830
H          0.69170        1.13020        5.72100
H          0.24110       -0.25780        6.72060
H         -9.27040       -9.74350        8.01880
H         -9.29350      -10.19530        9.73430
H        -11.58120       -9.64840        8.92360
H        -11.06640       -8.48900       10.15200
H        -11.03790       -8.03660        8.44370
H         -8.98590       -4.56090        8.15980
H         -8.39560        0.27320        6.45510
H        -13.07120        0.07100        4.76400
H        -14.12320       -3.04470        5.50840
H        -13.96200       -2.84370        3.06000
H        -12.29500       -1.04770        1.41810
H        -11.77540        2.72260       -3.63910
H        -10.70710        1.47850       -4.31840
H        -13.03920        1.17790       -5.12390
H        -13.60960        1.04680       -3.45740
H        -12.54830       -0.19690       -4.12770
H         -5.78410       -6.71840        6.09600
H         -7.26490       -7.26800        5.29100
H         -4.47910       -7.19920        4.02780
H         -5.95130       -7.74630        3.21920
H         -5.31430       -8.64630        4.60020
H         -5.26180       -2.40930        1.56490
H         -4.65180        0.58490       -2.11530
H         -3.73290        3.90550       -7.35590
H         -2.40950        4.73520       -6.51360
H         -5.32840        4.68380       -5.60200
H         -4.00960        5.50670       -4.76290
H         -4.51220        6.05060       -6.36730
H          0.70360       -1.90340        4.87480
H          1.71090       -3.30360        4.45900
H         -0.38860       -3.98810        5.64260
H         -0.33800       -4.64120        4.00170
H         -1.34870       -3.23920        4.36750
H          2.34040       -0.26290       -0.82280
H          3.14020        2.09210       -4.92560
H          4.17500        5.28560      -10.25910
H          5.35270        4.02590      -10.67850
H          2.37620        3.56510      -10.14580
H          3.15310        3.55810      -11.73210
H          3.54690        2.30540      -10.54950
H          7.99780       -0.74740        2.06790
H          9.13820       -2.04770        1.67040
H          9.83150        0.92910        1.81170
H         10.96500       -0.37070        1.42920
H         10.23690       -0.27960        3.03590
H         10.10490        0.90220       -3.78570
H         10.81780        2.83330       -8.10950
H         10.61990        6.66980      -11.49940
H         10.62010        5.78180      -13.03540
H          8.88780        4.22960      -12.12820
H          8.32730        5.90440      -12.07030
H          8.89470        5.11010      -10.59650
H         18.97940        1.21830       -2.60220
H         18.37970       -0.31960       -1.95050
H         17.18630        2.43590       -1.36200
H         16.60010        0.90360       -0.70710
H         18.20210        1.49900       -0.26010
H         17.80360        1.56210       -7.18330
H         18.44310        2.56990       -9.49620
