
  xtb     02282216153D
 energy: -261.957487439982 gnorm: 0.000344592084 xtb: 6.4.1 (unknown)
132149  0     0  0            999 V2000
    6.1812   -0.1098   -1.1922 C   0  0  0  0  0  0  0  0  0  0  0  0
    7.5055    0.2937   -1.0140 C   0  0  0  0  0  0  0  0  0  0  0  0
    7.4696    1.4670   -0.2880 C   0  0  0  0  0  0  0  0  0  0  0  0
    6.0867    1.8074   -0.0381 C   0  0  0  0  0  0  0  0  0  0  0  0
    5.7475    2.9483    0.6248 O   0  0  0  0  0  0  0  0  0  0  0  0
    6.8049    3.6656    1.0534 C   0  0  0  0  0  0  0  0  0  0  0  0
    8.0915    3.3328    0.8521 C   0  0  0  0  0  0  0  0  0  0  0  0
    8.4946    2.2265    0.1695 O   0  0  0  0  0  0  0  0  0  0  0  0
    5.2909    0.8122   -0.5695 C   0  0  0  0  0  0  0  0  0  0  0  0
    3.8530    0.6950   -0.5309 C   0  0  0  0  0  0  0  0  0  0  0  0
    2.9342    1.7006   -0.5636 C   0  0  0  0  0  0  0  0  0  0  0  0
    1.5968    1.1308   -0.6722 C   0  0  0  0  0  0  0  0  0  0  0  0
    0.4847    1.9054   -0.6954 O   0  0  0  0  0  0  0  0  0  0  0  0
    0.7446    3.2447   -0.5752 C   0  0  0  0  0  0  0  0  0  0  0  0
    1.9706    3.7678   -0.4997 C   0  0  0  0  0  0  0  0  0  0  0  0
    3.1299    3.0481   -0.5203 O   0  0  0  0  0  0  0  0  0  0  0  0
    1.6990   -0.2139   -0.7409 C   0  0  0  0  0  0  0  0  0  0  0  0
    3.0913   -0.5568   -0.5544 C   0  0  0  0  0  0  0  0  0  0  0  0
    3.5053   -1.8350   -0.3299 C   0  0  0  0  0  0  0  0  0  0  0  0
    4.7539   -2.2603    0.2039 C   0  0  0  0  0  0  0  0  0  0  0  0
    5.4677   -1.6666    1.2034 C   0  0  0  0  0  0  0  0  0  0  0  0
    6.8679   -1.9492    1.4396 C   0  0  0  0  0  0  0  0  0  0  0  0
    7.3371   -1.0048    2.2832 C   0  0  0  0  0  0  0  0  0  0  0  0
    6.2280   -0.1644    2.7128 C   0  0  0  0  0  0  0  0  0  0  0  0
    6.4028    0.8442    3.6089 O   0  0  0  0  0  0  0  0  0  0  0  0
    7.7062    1.0410    3.9596 C   0  0  0  0  0  0  0  0  0  0  0  0
    8.7276    0.2872    3.5453 C   0  0  0  0  0  0  0  0  0  0  0  0
    8.6056   -0.7963    2.7183 O   0  0  0  0  0  0  0  0  0  0  0  0
    5.0796   -0.5824    2.1085 C   0  0  0  0  0  0  0  0  0  0  0  0
    3.7573   -0.0579    2.3625 C   0  0  0  0  0  0  0  0  0  0  0  0
    3.4444    1.2495    2.5920 C   0  0  0  0  0  0  0  0  0  0  0  0
    1.9957    1.3769    2.7118 C   0  0  0  0  0  0  0  0  0  0  0  0
    1.3933    2.5791    2.8672 O   0  0  0  0  0  0  0  0  0  0  0  0
    2.2662    3.6262    2.9433 C   0  0  0  0  0  0  0  0  0  0  0  0
    3.5953    3.5039    2.8643 C   0  0  0  0  0  0  0  0  0  0  0  0
    4.2566    2.3283    2.6875 O   0  0  0  0  0  0  0  0  0  0  0  0
    1.4355    0.1524    2.6073 C   0  0  0  0  0  0  0  0  0  0  0  0
    2.5018   -0.8052    2.4243 C   0  0  0  0  0  0  0  0  0  0  0  0
    2.3817   -2.1703    2.4125 C   0  0  0  0  0  0  0  0  0  0  0  0
    1.1480   -2.8432    2.4292 C   0  0  0  0  0  0  0  0  0  0  0  0
    0.9626   -4.2005    2.4399 C   0  0  0  0  0  0  0  0  0  0  0  0
    1.9650   -5.2293    2.5744 C   0  0  0  0  0  0  0  0  0  0  0  0
    1.3228   -6.4123    2.7216 C   0  0  0  0  0  0  0  0  0  0  0  0
   -0.1130   -6.1866    2.6563 C   0  0  0  0  0  0  0  0  0  0  0  0
   -1.0087   -7.2049    2.7551 O   0  0  0  0  0  0  0  0  0  0  0  0
   -0.4256   -8.4208    2.9616 C   0  0  0  0  0  0  0  0  0  0  0  0
    0.8914   -8.6305    3.0316 C   0  0  0  0  0  0  0  0  0  0  0  0
    1.8422   -7.6549    2.9034 O   0  0  0  0  0  0  0  0  0  0  0  0
   -0.3428   -4.8594    2.4553 C   0  0  0  0  0  0  0  0  0  0  0  0
   -1.6279   -4.2105    2.3144 C   0  0  0  0  0  0  0  0  0  0  0  0
   -2.7454   -4.3911    3.0752 C   0  0  0  0  0  0  0  0  0  0  0  0
   -3.7853   -3.4821    2.6170 C   0  0  0  0  0  0  0  0  0  0  0  0
   -5.0068   -3.4388    3.1984 O   0  0  0  0  0  0  0  0  0  0  0  0
   -5.1673   -4.3520    4.2054 C   0  0  0  0  0  0  0  0  0  0  0  0
   -4.2091   -5.1815    4.6295 C   0  0  0  0  0  0  0  0  0  0  0  0
   -2.9489   -5.2393    4.1174 O   0  0  0  0  0  0  0  0  0  0  0  0
   -3.3053   -2.7436    1.5859 C   0  0  0  0  0  0  0  0  0  0  0  0
   -1.9540   -3.1908    1.3265 C   0  0  0  0  0  0  0  0  0  0  0  0
   -1.1826   -2.8916    0.2261 C   0  0  0  0  0  0  0  0  0  0  0  0
   -1.3936   -1.8627   -0.7095 C   0  0  0  0  0  0  0  0  0  0  0  0
   -1.8852   -0.5909   -0.4988 C   0  0  0  0  0  0  0  0  0  0  0  0
   -2.2073    0.4561   -1.8666 S   0  0  0  0  0  0  0  0  0  0  0  0
   -2.5420    1.8347   -0.8476 C   0  0  0  0  0  0  0  0  0  0  0  0
   -2.3200    1.4877    0.5145 C   0  0  0  0  0  0  0  0  0  0  0  0
   -2.0061    0.1534    0.7139 C   0  0  0  0  0  0  0  0  0  0  0  0
   -1.7717   -0.3244    1.9391 O   0  0  0  0  0  0  0  0  0  0  0  0
   -2.4594    2.3627    1.6038 C   0  0  0  0  0  0  0  0  0  0  0  0
   -2.5678    3.0413    2.5230 N   0  0  0  0  0  0  0  0  0  0  0  0
   -2.9935    3.0370   -1.3476 C   0  0  0  0  0  0  0  0  0  0  0  0
   -2.9735    4.2992   -0.6535 C   0  0  0  0  0  0  0  0  0  0  0  0
   -3.4059    5.2471   -1.5221 C   0  0  0  0  0  0  0  0  0  0  0  0
   -3.7561    4.6083   -2.7794 C   0  0  0  0  0  0  0  0  0  0  0  0
   -4.2631    5.3134   -3.8269 O   0  0  0  0  0  0  0  0  0  0  0  0
   -4.3579    6.6497   -3.5849 C   0  0  0  0  0  0  0  0  0  0  0  0
   -4.0142    7.2424   -2.4365 C   0  0  0  0  0  0  0  0  0  0  0  0
   -3.5290    6.5858   -1.3405 O   0  0  0  0  0  0  0  0  0  0  0  0
   -3.5274    3.2667   -2.6804 C   0  0  0  0  0  0  0  0  0  0  0  0
   -3.8034    2.3103   -3.7398 C   0  0  0  0  0  0  0  0  0  0  0  0
   -3.3776    2.4938   -5.0305 C   0  0  0  0  0  0  0  0  0  0  0  0
   -3.8545    1.4012   -5.8527 C   0  0  0  0  0  0  0  0  0  0  0  0
   -3.5664    1.3231   -7.1791 O   0  0  0  0  0  0  0  0  0  0  0  0
   -2.8002    2.3556   -7.6303 C   0  0  0  0  0  0  0  0  0  0  0  0
   -2.3501    3.3590   -6.8650 C   0  0  0  0  0  0  0  0  0  0  0  0
   -2.5982    3.4890   -5.5356 O   0  0  0  0  0  0  0  0  0  0  0  0
   -4.5774    0.5593   -5.0653 C   0  0  0  0  0  0  0  0  0  0  0  0
   -4.5918    1.0955   -3.7383 C   0  0  0  0  0  0  0  0  0  0  0  0
   -5.2590    0.4443   -2.6909 C   0  0  0  0  0  0  0  0  0  0  0  0
   -5.4381    0.9083   -1.4162 C   0  0  0  0  0  0  0  0  0  0  0  0
   -5.9106    0.1277   -0.3359 C   0  0  0  0  0  0  0  0  0  0  0  0
   -5.9190    0.8176    1.2762 S   0  0  0  0  0  0  0  0  0  0  0  0
   -6.4904   -0.6326    1.9701 C   0  0  0  0  0  0  0  0  0  0  0  0
   -6.6756   -1.6167    1.0281 C   0  0  0  0  0  0  0  0  0  0  0  0
   -6.3389   -1.1946   -0.2895 C   0  0  0  0  0  0  0  0  0  0  0  0
   -6.4267   -1.9904   -1.3808 O   0  0  0  0  0  0  0  0  0  0  0  0
   -7.1512   -2.9120    1.2885 C   0  0  0  0  0  0  0  0  0  0  0  0
   -7.5539   -3.9803    1.4093 N   0  0  0  0  0  0  0  0  0  0  0  0
    5.8665   -0.9663   -1.7553 H   0  0  0  0  0  0  0  0  0  0  0  0
    8.3842   -0.2078   -1.3660 H   0  0  0  0  0  0  0  0  0  0  0  0
    6.5243    4.5585    1.5859 H   0  0  0  0  0  0  0  0  0  0  0  0
    8.9143    3.9249    1.2126 H   0  0  0  0  0  0  0  0  0  0  0  0
   -0.1530    3.8375   -0.5537 H   0  0  0  0  0  0  0  0  0  0  0  0
    2.1450    4.8261   -0.4130 H   0  0  0  0  0  0  0  0  0  0  0  0
    0.9002   -0.9246   -0.7951 H   0  0  0  0  0  0  0  0  0  0  0  0
    2.8057   -2.6238   -0.5867 H   0  0  0  0  0  0  0  0  0  0  0  0
    5.1711   -3.1692   -0.2176 H   0  0  0  0  0  0  0  0  0  0  0  0
    7.4367   -2.7014    0.9309 H   0  0  0  0  0  0  0  0  0  0  0  0
    7.8340    1.8820    4.6188 H   0  0  0  0  0  0  0  0  0  0  0  0
    9.7468    0.4696    3.8367 H   0  0  0  0  0  0  0  0  0  0  0  0
    1.7662    4.5689    3.0787 H   0  0  0  0  0  0  0  0  0  0  0  0
    4.2580    4.3480    2.9365 H   0  0  0  0  0  0  0  0  0  0  0  0
    0.3897   -0.0587    2.6855 H   0  0  0  0  0  0  0  0  0  0  0  0
    3.2849   -2.7599    2.3699 H   0  0  0  0  0  0  0  0  0  0  0  0
    0.2621   -2.2273    2.4304 H   0  0  0  0  0  0  0  0  0  0  0  0
    3.0241   -5.0714    2.5925 H   0  0  0  0  0  0  0  0  0  0  0  0
   -1.1468   -9.2126    3.0649 H   0  0  0  0  0  0  0  0  0  0  0  0
    1.3203   -9.6030    3.1967 H   0  0  0  0  0  0  0  0  0  0  0  0
   -6.1588   -4.3340    4.6205 H   0  0  0  0  0  0  0  0  0  0  0  0
   -4.3636   -5.8854    5.4285 H   0  0  0  0  0  0  0  0  0  0  0  0
   -3.8462   -2.0275    0.9993 H   0  0  0  0  0  0  0  0  0  0  0  0
   -0.3669   -3.5715    0.0120 H   0  0  0  0  0  0  0  0  0  0  0  0
   -1.0823   -2.0718   -1.7264 H   0  0  0  0  0  0  0  0  0  0  0  0
   -1.7334   -1.2974    1.9221 H   0  0  0  0  0  0  0  0  0  0  0  0
   -2.6390    4.4561    0.3511 H   0  0  0  0  0  0  0  0  0  0  0  0
   -4.7440    7.1971   -4.4271 H   0  0  0  0  0  0  0  0  0  0  0  0
   -4.0974    8.3030   -2.2779 H   0  0  0  0  0  0  0  0  0  0  0  0
   -2.5855    2.2840   -8.6822 H   0  0  0  0  0  0  0  0  0  0  0  0
   -1.7429    4.1572   -7.2559 H   0  0  0  0  0  0  0  0  0  0  0  0
   -5.0724   -0.3410   -5.3700 H   0  0  0  0  0  0  0  0  0  0  0  0
   -5.6322   -0.5433   -2.9243 H   0  0  0  0  0  0  0  0  0  0  0  0
   -5.1734    1.9261   -1.1733 H   0  0  0  0  0  0  0  0  0  0  0  0
   -6.6593   -0.7076    3.0252 H   0  0  0  0  0  0  0  0  0  0  0  0
   -6.7524   -2.8636   -1.1221 H   0  0  0  0  0  0  0  0  0  0  0  0
  1  2  2  0  0  0  0
  2  3  1  0  0  0  0
  3  4  2  0  0  0  0
  4  5  1  0  0  0  0
  5  6  1  0  0  0  0
  6  7  2  0  0  0  0
  7  8  1  0  0  0  0
  4  9  1  0  0  0  0
  9 10  2  0  0  0  0
 10 11  1  0  0  0  0
 11 12  2  0  0  0  0
 12 13  1  0  0  0  0
 13 14  1  0  0  0  0
 14 15  2  0  0  0  0
 15 16  1  0  0  0  0
 12 17  1  0  0  0  0
 17 18  2  0  0  0  0
 18 19  1  0  0  0  0
 19 20  2  0  0  0  0
 20 21  1  0  0  0  0
 21 22  2  0  0  0  0
 22 23  1  0  0  0  0
 23 24  2  0  0  0  0
 24 25  1  0  0  0  0
 25 26  1  0  0  0  0
 26 27  2  0  0  0  0
 27 28  1  0  0  0  0
 24 29  1  0  0  0  0
 29 30  2  0  0  0  0
 30 31  1  0  0  0  0
 31 32  2  0  0  0  0
 32 33  1  0  0  0  0
 33 34  1  0  0  0  0
 34 35  2  0  0  0  0
 35 36  1  0  0  0  0
 32 37  1  0  0  0  0
 37 38  2  0  0  0  0
 38 39  1  0  0  0  0
 39 40  2  0  0  0  0
 40 41  1  0  0  0  0
 41 42  2  0  0  0  0
 42 43  1  0  0  0  0
 43 44  2  0  0  0  0
 44 45  1  0  0  0  0
 45 46  1  0  0  0  0
 46 47  2  0  0  0  0
 47 48  1  0  0  0  0
 44 49  1  0  0  0  0
 49 50  2  0  0  0  0
 50 51  1  0  0  0  0
 51 52  2  0  0  0  0
 52 53  1  0  0  0  0
 53 54  1  0  0  0  0
 54 55  2  0  0  0  0
 55 56  1  0  0  0  0
 52 57  1  0  0  0  0
 57 58  2  0  0  0  0
 58 59  1  0  0  0  0
 59 60  2  0  0  0  0
 60 61  1  0  0  0  0
 61 62  1  0  0  0  0
 62 63  1  0  0  0  0
 63 64  2  0  0  0  0
 64 65  1  0  0  0  0
 65 66  1  0  0  0  0
 64 67  1  0  0  0  0
 67 68  3  0  0  0  0
 63 69  1  0  0  0  0
 69 70  2  0  0  0  0
 70 71  1  0  0  0  0
 71 72  2  0  0  0  0
 72 73  1  0  0  0  0
 73 74  1  0  0  0  0
 74 75  2  0  0  0  0
 75 76  1  0  0  0  0
 72 77  1  0  0  0  0
 77 78  2  0  0  0  0
 78 79  1  0  0  0  0
 79 80  2  0  0  0  0
 80 81  1  0  0  0  0
 81 82  1  0  0  0  0
 82 83  2  0  0  0  0
 83 84  1  0  0  0  0
 80 85  1  0  0  0  0
 85 86  2  0  0  0  0
 86 87  1  0  0  0  0
 87 88  2  0  0  0  0
 88 89  1  0  0  0  0
 89 90  1  0  0  0  0
 90 91  1  0  0  0  0
 91 92  2  0  0  0  0
 92 93  1  0  0  0  0
 93 94  1  0  0  0  0
 92 95  1  0  0  0  0
 95 96  3  0  0  0  0
  9  1  1  0  0  0  0
 18 10  1  0  0  0  0
 29 21  1  0  0  0  0
 38 30  1  0  0  0  0
 49 41  1  0  0  0  0
 58 50  1  0  0  0  0
 65 61  2  0  0  0  0
 77 69  1  0  0  0  0
 86 78  1  0  0  0  0
 93 89  2  0  0  0  0
  8  3  1  0  0  0  0
 16 11  1  0  0  0  0
 28 23  1  0  0  0  0
 36 31  1  0  0  0  0
 48 43  1  0  0  0  0
 56 51  1  0  0  0  0
 76 71  1  0  0  0  0
 84 79  1  0  0  0  0
  1 97  1  0  0  0  0
  2 98  1  0  0  0  0
  6 99  1  0  0  0  0
  7100  1  0  0  0  0
 14101  1  0  0  0  0
 15102  1  0  0  0  0
 17103  1  0  0  0  0
 19104  1  0  0  0  0
 20105  1  0  0  0  0
 22106  1  0  0  0  0
 26107  1  0  0  0  0
 27108  1  0  0  0  0
 34109  1  0  0  0  0
 35110  1  0  0  0  0
 37111  1  0  0  0  0
 39112  1  0  0  0  0
 40113  1  0  0  0  0
 42114  1  0  0  0  0
 46115  1  0  0  0  0
 47116  1  0  0  0  0
 54117  1  0  0  0  0
 55118  1  0  0  0  0
 57119  1  0  0  0  0
 59120  1  0  0  0  0
 60121  1  0  0  0  0
 66122  1  0  0  0  0
 70123  1  0  0  0  0
 74124  1  0  0  0  0
 75125  1  0  0  0  0
 82126  1  0  0  0  0
 83127  1  0  0  0  0
 85128  1  0  0  0  0
 87129  1  0  0  0  0
 88130  1  0  0  0  0
 91131  1  0  0  0  0
 94132  1  0  0  0  0
M  END
