
  xtb     03022206213D
 energy: -275.165517953653 gnorm: 0.000426065197 xtb: 6.4.1 (unknown)
166181  0     0  0            999 V2000
    1.2358   11.7552    0.9112 C   0  0  0  0  0  0  0  0  0  0  0  0
    1.0356   10.6777    0.1275 C   0  0  0  0  0  0  0  0  0  0  0  0
    1.1335    9.4424    0.8379 C   0  0  0  0  0  0  0  0  0  0  0  0
    0.9828    8.1415    0.3476 C   0  0  0  0  0  0  0  0  0  0  0  0
    0.7111    7.8576   -1.0994 C   0  0  0  0  0  0  0  0  0  0  0  0
    2.0159    7.8234   -1.8974 C   0  0  0  0  0  0  0  0  0  0  0  0
    1.1470    7.1183    1.2635 C   0  0  0  0  0  0  0  0  0  0  0  0
    1.4405    7.3297    2.6342 C   0  0  0  0  0  0  0  0  0  0  0  0
    1.5858    8.6329    3.1258 C   0  0  0  0  0  0  0  0  0  0  0  0
    1.8498    8.9138    4.5745 C   0  0  0  0  0  0  0  0  0  0  0  0
    0.5435    8.9129    5.3712 C   0  0  0  0  0  0  0  0  0  0  0  0
    1.4235    9.6546    2.2081 C   0  0  0  0  0  0  0  0  0  0  0  0
    1.5555   11.3605    2.5653 S   0  0  0  0  0  0  0  0  0  0  0  0
    1.5491    6.1048    3.3436 C   0  0  0  0  0  0  0  0  0  0  0  0
    1.3533    5.0003    2.5681 C   0  0  0  0  0  0  0  0  0  0  0  0
    1.0177    5.4163    0.9008 S   0  0  0  0  0  0  0  0  0  0  0  0
    1.4024    3.6297    2.9712 C   0  0  0  0  0  0  0  0  0  0  0  0
    1.7054    3.1352    4.2062 C   0  0  0  0  0  0  0  0  0  0  0  0
    1.6693    1.7193    4.2808 C   0  0  0  0  0  0  0  0  0  0  0  0
    1.9173    0.9051    5.3952 C   0  0  0  0  0  0  0  0  0  0  0  0
    2.2314    1.4751    6.7449 C   0  0  0  0  0  0  0  0  0  0  0  0
    0.9538    1.9279    7.4547 C   0  0  0  0  0  0  0  0  0  0  0  0
    1.8029   -0.4554    5.1892 C   0  0  0  0  0  0  0  0  0  0  0  0
    1.4727   -1.0386    3.9412 C   0  0  0  0  0  0  0  0  0  0  0  0
    1.2248   -0.2268    2.8285 C   0  0  0  0  0  0  0  0  0  0  0  0
    0.8128   -0.8079    1.5103 C   0  0  0  0  0  0  0  0  0  0  0  0
   -0.6703   -1.1825    1.5266 C   0  0  0  0  0  0  0  0  0  0  0  0
    1.3258    1.1361    3.0343 C   0  0  0  0  0  0  0  0  0  0  0  0
    1.0506    2.3583    1.8206 S   0  0  0  0  0  0  0  0  0  0  0  0
    1.4150   -2.4544    4.0198 C   0  0  0  0  0  0  0  0  0  0  0  0
    1.6546   -2.9434    5.2658 C   0  0  0  0  0  0  0  0  0  0  0  0
    2.0396   -1.6795    6.4167 S   0  0  0  0  0  0  0  0  0  0  0  0
    1.6134   -4.3233    5.6452 C   0  0  0  0  0  0  0  0  0  0  0  0
    2.1794   -5.4785    4.4728 S   0  0  0  0  0  0  0  0  0  0  0  0
    1.7822   -6.8243    5.5018 C   0  0  0  0  0  0  0  0  0  0  0  0
    1.2790   -6.3686    6.6992 C   0  0  0  0  0  0  0  0  0  0  0  0
    1.1524   -4.9597    6.7694 C   0  0  0  0  0  0  0  0  0  0  0  0
    0.4832   -4.4580    8.0219 C   0  0  0  0  0  0  0  0  0  0  0  0
    0.2128   -2.9895    8.1912 C   0  0  0  0  0  0  0  0  0  0  0  0
    0.6292   -2.2917    9.0733 O   0  0  0  0  0  0  0  0  0  0  0  0
   -0.9706   -2.4754    7.3143 C   0  0  0  0  0  0  0  0  0  0  0  0
   -0.9703   -1.1563    7.1397 F   0  0  0  0  0  0  0  0  0  0  0  0
   -1.0607   -3.0431    6.1049 F   0  0  0  0  0  0  0  0  0  0  0  0
   -2.1173   -2.7878    7.9541 F   0  0  0  0  0  0  0  0  0  0  0  0
    1.2548   -4.9955    9.2419 C   0  0  0  0  0  0  0  0  0  0  0  0
    1.5699   -6.4971    9.1243 C   0  0  0  0  0  0  0  0  0  0  0  0
    0.9020   -7.1554    7.9080 C   0  0  0  0  0  0  0  0  0  0  0  0
    2.0349   -8.1873    5.1418 C   0  0  0  0  0  0  0  0  0  0  0  0
    2.1941   -8.7311    3.9205 C   0  0  0  0  0  0  0  0  0  0  0  0
    2.0217   -8.1262    2.6271 C   0  0  0  0  0  0  0  0  0  0  0  0
    0.7448   -7.0192    2.2470 S   0  0  0  0  0  0  0  0  0  0  0  0
    1.2604   -6.8941    0.5854 C   0  0  0  0  0  0  0  0  0  0  0  0
    2.3584   -7.6985    0.3484 C   0  0  0  0  0  0  0  0  0  0  0  0
    2.7609   -8.4104    1.4955 C   0  0  0  0  0  0  0  0  0  0  0  0
    3.9613   -9.3147    1.5328 C   0  0  0  0  0  0  0  0  0  0  0  0
    5.0562   -8.6470    2.3224 C   0  0  0  0  0  0  0  0  0  0  0  0
    5.3588   -7.4907    2.2968 O   0  0  0  0  0  0  0  0  0  0  0  0
    5.8604   -9.6375    3.2211 C   0  0  0  0  0  0  0  0  0  0  0  0
    6.3136  -10.6846    2.5099 F   0  0  0  0  0  0  0  0  0  0  0  0
    6.9103   -9.0674    3.8040 F   0  0  0  0  0  0  0  0  0  0  0  0
    5.0850  -10.1469    4.1931 F   0  0  0  0  0  0  0  0  0  0  0  0
    4.4896   -9.5876    0.1079 C   0  0  0  0  0  0  0  0  0  0  0  0
    4.5289   -8.2991   -0.7016 C   0  0  0  0  0  0  0  0  0  0  0  0
    3.1100   -7.7885   -0.9415 C   0  0  0  0  0  0  0  0  0  0  0  0
    0.5588   -5.9761   -0.2501 C   0  0  0  0  0  0  0  0  0  0  0  0
    0.5372   -5.9481   -1.5988 C   0  0  0  0  0  0  0  0  0  0  0  0
   -0.1406   -4.9474   -2.3561 C   0  0  0  0  0  0  0  0  0  0  0  0
   -0.3124   -4.9224   -3.7107 C   0  0  0  0  0  0  0  0  0  0  0  0
   -1.0171   -3.7874   -4.1856 C   0  0  0  0  0  0  0  0  0  0  0  0
   -1.3686   -3.4702   -5.5044 C   0  0  0  0  0  0  0  0  0  0  0  0
   -0.9910   -4.3425   -6.6635 C   0  0  0  0  0  0  0  0  0  0  0  0
    0.4248   -4.0178   -7.1443 C   0  0  0  0  0  0  0  0  0  0  0  0
   -2.0440   -2.2790   -5.6886 C   0  0  0  0  0  0  0  0  0  0  0  0
   -2.3900   -1.3976   -4.6324 C   0  0  0  0  0  0  0  0  0  0  0  0
   -2.0560   -1.7239   -3.3109 C   0  0  0  0  0  0  0  0  0  0  0  0
   -2.3651   -0.8138   -2.1604 C   0  0  0  0  0  0  0  0  0  0  0  0
   -1.2406    0.2048   -1.9623 C   0  0  0  0  0  0  0  0  0  0  0  0
   -1.3760   -2.9125   -3.1280 C   0  0  0  0  0  0  0  0  0  0  0  0
   -0.8431   -3.5362   -1.5868 S   0  0  0  0  0  0  0  0  0  0  0  0
   -3.0733   -0.2498   -5.1090 C   0  0  0  0  0  0  0  0  0  0  0  0
   -3.2561   -0.2392   -6.4610 C   0  0  0  0  0  0  0  0  0  0  0  0
   -2.5794   -1.6589   -7.2292 S   0  0  0  0  0  0  0  0  0  0  0  0
   -3.9095    0.7585   -7.2486 C   0  0  0  0  0  0  0  0  0  0  0  0
   -4.4448    1.9391   -6.8249 C   0  0  0  0  0  0  0  0  0  0  0  0
   -5.0385    2.7038   -7.8631 C   0  0  0  0  0  0  0  0  0  0  0  0
   -5.6727    3.9489   -7.7698 C   0  0  0  0  0  0  0  0  0  0  0  0
   -5.8424    4.6613   -6.4617 C   0  0  0  0  0  0  0  0  0  0  0  0
   -7.0792    4.1470   -5.7222 C   0  0  0  0  0  0  0  0  0  0  0  0
   -6.1821    4.4656   -8.9470 C   0  0  0  0  0  0  0  0  0  0  0  0
   -6.0782    3.8159  -10.2015 C   0  0  0  0  0  0  0  0  0  0  0  0
   -5.4319    2.5796  -10.2980 C   0  0  0  0  0  0  0  0  0  0  0  0
   -5.3259    1.8300  -11.5924 C   0  0  0  0  0  0  0  0  0  0  0  0
   -6.5883    1.0031  -11.8434 C   0  0  0  0  0  0  0  0  0  0  0  0
   -4.9349    2.0544   -9.1190 C   0  0  0  0  0  0  0  0  0  0  0  0
   -4.1096    0.5243   -8.9722 S   0  0  0  0  0  0  0  0  0  0  0  0
   -6.6934    4.5814  -11.2386 C   0  0  0  0  0  0  0  0  0  0  0  0
   -7.2292    5.7358  -10.7963 C   0  0  0  0  0  0  0  0  0  0  0  0
   -7.0324    5.9855   -9.0955 S   0  0  0  0  0  0  0  0  0  0  0  0
    1.2179   12.7900    0.6288 H   0  0  0  0  0  0  0  0  0  0  0  0
    0.8271   10.7453   -0.9249 H   0  0  0  0  0  0  0  0  0  0  0  0
    0.2133    6.8888   -1.1849 H   0  0  0  0  0  0  0  0  0  0  0  0
    0.0480    8.6199   -1.5116 H   0  0  0  0  0  0  0  0  0  0  0  0
    2.6698    7.0440   -1.5130 H   0  0  0  0  0  0  0  0  0  0  0  0
    1.8128    7.6191   -2.9459 H   0  0  0  0  0  0  0  0  0  0  0  0
    2.5348    8.7763   -1.8207 H   0  0  0  0  0  0  0  0  0  0  0  0
    2.3260    9.8923    4.6677 H   0  0  0  0  0  0  0  0  0  0  0  0
    2.5293    8.1636    4.9824 H   0  0  0  0  0  0  0  0  0  0  0  0
    0.0463    7.9491    5.2877 H   0  0  0  0  0  0  0  0  0  0  0  0
    0.7406    9.1151    6.4212 H   0  0  0  0  0  0  0  0  0  0  0  0
   -0.1277    9.6794    4.9909 H   0  0  0  0  0  0  0  0  0  0  0  0
    1.7623    6.0473    4.3950 H   0  0  0  0  0  0  0  0  0  0  0  0
    1.9527    3.7648    5.0406 H   0  0  0  0  0  0  0  0  0  0  0  0
    2.7232    0.7101    7.3499 H   0  0  0  0  0  0  0  0  0  0  0  0
    2.9158    2.3197    6.6411 H   0  0  0  0  0  0  0  0  0  0  0  0
    1.1931    2.3372    8.4330 H   0  0  0  0  0  0  0  0  0  0  0  0
    0.2799    1.0857    7.5864 H   0  0  0  0  0  0  0  0  0  0  0  0
    0.4410    2.6894    6.8714 H   0  0  0  0  0  0  0  0  0  0  0  0
    1.4103   -1.6953    1.2937 H   0  0  0  0  0  0  0  0  0  0  0  0
    0.9916   -0.0738    0.7218 H   0  0  0  0  0  0  0  0  0  0  0  0
   -0.8825   -1.8688    2.3429 H   0  0  0  0  0  0  0  0  0  0  0  0
   -1.2814   -0.2930    1.6597 H   0  0  0  0  0  0  0  0  0  0  0  0
   -0.9438   -1.6606    0.5903 H   0  0  0  0  0  0  0  0  0  0  0  0
    1.1664   -3.0952    3.1935 H   0  0  0  0  0  0  0  0  0  0  0  0
   -0.5215   -4.9137    8.0174 H   0  0  0  0  0  0  0  0  0  0  0  0
    2.1766   -4.4211    9.3374 H   0  0  0  0  0  0  0  0  0  0  0  0
    0.6574   -4.7978   10.1327 H   0  0  0  0  0  0  0  0  0  0  0  0
    1.2526   -7.0151   10.0295 H   0  0  0  0  0  0  0  0  0  0  0  0
    2.6478   -6.6357    9.0274 H   0  0  0  0  0  0  0  0  0  0  0  0
   -0.1850   -7.1563    8.0321 H   0  0  0  0  0  0  0  0  0  0  0  0
    1.2240   -8.1929    7.8256 H   0  0  0  0  0  0  0  0  0  0  0  0
    2.1401   -8.8551    5.9874 H   0  0  0  0  0  0  0  0  0  0  0  0
    2.4853   -9.7747    3.8887 H   0  0  0  0  0  0  0  0  0  0  0  0
    3.7098  -10.2682    2.0098 H   0  0  0  0  0  0  0  0  0  0  0  0
    3.8147  -10.3010   -0.3690 H   0  0  0  0  0  0  0  0  0  0  0  0
    5.4792  -10.0439    0.1621 H   0  0  0  0  0  0  0  0  0  0  0  0
    5.1021   -7.5429   -0.1623 H   0  0  0  0  0  0  0  0  0  0  0  0
    5.0218   -8.4795   -1.6580 H   0  0  0  0  0  0  0  0  0  0  0  0
    2.5889   -8.4724   -1.6202 H   0  0  0  0  0  0  0  0  0  0  0  0
    3.1413   -6.8051   -1.4147 H   0  0  0  0  0  0  0  0  0  0  0  0
   -0.0260   -5.2341    0.2807 H   0  0  0  0  0  0  0  0  0  0  0  0
    1.0234   -6.7149   -2.1827 H   0  0  0  0  0  0  0  0  0  0  0  0
    0.0565   -5.7045   -4.3501 H   0  0  0  0  0  0  0  0  0  0  0  0
   -1.6948   -4.1731   -7.4815 H   0  0  0  0  0  0  0  0  0  0  0  0
   -1.0499   -5.3934   -6.3752 H   0  0  0  0  0  0  0  0  0  0  0  0
    0.6944   -4.6534   -7.9841 H   0  0  0  0  0  0  0  0  0  0  0  0
    0.4826   -2.9797   -7.4631 H   0  0  0  0  0  0  0  0  0  0  0  0
    1.1444   -4.1717   -6.3431 H   0  0  0  0  0  0  0  0  0  0  0  0
   -2.4748   -1.4118   -1.2528 H   0  0  0  0  0  0  0  0  0  0  0  0
   -3.3069   -0.2927   -2.3372 H   0  0  0  0  0  0  0  0  0  0  0  0
   -1.4574    0.8511   -1.1158 H   0  0  0  0  0  0  0  0  0  0  0  0
   -0.2998   -0.3070   -1.7742 H   0  0  0  0  0  0  0  0  0  0  0  0
   -1.1244    0.8201   -2.8517 H   0  0  0  0  0  0  0  0  0  0  0  0
   -3.4201    0.5408   -4.4695 H   0  0  0  0  0  0  0  0  0  0  0  0
   -4.4157    2.2558   -5.7987 H   0  0  0  0  0  0  0  0  0  0  0  0
   -4.9566    4.5168   -5.8408 H   0  0  0  0  0  0  0  0  0  0  0  0
   -5.9563    5.7312   -6.6498 H   0  0  0  0  0  0  0  0  0  0  0  0
   -7.1960    4.6661   -4.7740 H   0  0  0  0  0  0  0  0  0  0  0  0
   -7.9709    4.3154   -6.3215 H   0  0  0  0  0  0  0  0  0  0  0  0
   -6.9919    3.0801   -5.5287 H   0  0  0  0  0  0  0  0  0  0  0  0
   -4.4628    1.1617  -11.5475 H   0  0  0  0  0  0  0  0  0  0  0  0
   -5.1739    2.5283  -12.4171 H   0  0  0  0  0  0  0  0  0  0  0  0
   -6.7308    0.2837  -11.0403 H   0  0  0  0  0  0  0  0  0  0  0  0
   -6.5051    0.4617  -12.7826 H   0  0  0  0  0  0  0  0  0  0  0  0
   -7.4638    1.6473  -11.8874 H   0  0  0  0  0  0  0  0  0  0  0  0
   -6.7295    4.2712  -12.2672 H   0  0  0  0  0  0  0  0  0  0  0  0
   -7.7464    6.4844  -11.3646 H   0  0  0  0  0  0  0  0  0  0  0  0
  1  2  2  0  0  0  0
  2  3  1  0  0  0  0
  3  4  2  0  0  0  0
  4  5  1  0  0  0  0
  5  6  1  0  0  0  0
  4  7  1  0  0  0  0
  7  8  2  0  0  0  0
  8  9  1  0  0  0  0
  9 10  1  0  0  0  0
 10 11  1  0  0  0  0
  9 12  2  0  0  0  0
 12 13  1  0  0  0  0
  8 14  1  0  0  0  0
 14 15  2  0  0  0  0
 15 16  1  0  0  0  0
 15 17  1  0  0  0  0
 17 18  2  0  0  0  0
 18 19  1  0  0  0  0
 19 20  2  0  0  0  0
 20 21  1  0  0  0  0
 21 22  1  0  0  0  0
 20 23  1  0  0  0  0
 23 24  2  0  0  0  0
 24 25  1  0  0  0  0
 25 26  1  0  0  0  0
 26 27  1  0  0  0  0
 25 28  2  0  0  0  0
 28 29  1  0  0  0  0
 24 30  1  0  0  0  0
 30 31  2  0  0  0  0
 31 32  1  0  0  0  0
 31 33  1  0  0  0  0
 33 34  1  0  0  0  0
 34 35  1  0  0  0  0
 35 36  2  0  0  0  0
 36 37  1  0  0  0  0
 37 38  1  0  0  0  0
 38 39  1  0  0  0  0
 39 40  2  0  0  0  0
 39 41  1  0  0  0  0
 41 42  1  0  0  0  0
 41 43  1  0  0  0  0
 41 44  1  0  0  0  0
 38 45  1  0  0  0  0
 45 46  1  0  0  0  0
 46 47  1  0  0  0  0
 35 48  1  0  0  0  0
 48 49  2  0  0  0  0
 49 50  1  0  0  0  0
 50 51  1  0  0  0  0
 51 52  1  0  0  0  0
 52 53  2  0  0  0  0
 53 54  1  0  0  0  0
 54 55  1  0  0  0  0
 55 56  1  0  0  0  0
 56 57  2  0  0  0  0
 56 58  1  0  0  0  0
 58 59  1  0  0  0  0
 58 60  1  0  0  0  0
 58 61  1  0  0  0  0
 55 62  1  0  0  0  0
 62 63  1  0  0  0  0
 63 64  1  0  0  0  0
 52 65  1  0  0  0  0
 65 66  2  0  0  0  0
 66 67  1  0  0  0  0
 67 68  2  0  0  0  0
 68 69  1  0  0  0  0
 69 70  2  0  0  0  0
 70 71  1  0  0  0  0
 71 72  1  0  0  0  0
 70 73  1  0  0  0  0
 73 74  2  0  0  0  0
 74 75  1  0  0  0  0
 75 76  1  0  0  0  0
 76 77  1  0  0  0  0
 75 78  2  0  0  0  0
 78 79  1  0  0  0  0
 74 80  1  0  0  0  0
 80 81  2  0  0  0  0
 81 82  1  0  0  0  0
 81 83  1  0  0  0  0
 83 84  2  0  0  0  0
 84 85  1  0  0  0  0
 85 86  2  0  0  0  0
 86 87  1  0  0  0  0
 87 88  1  0  0  0  0
 86 89  1  0  0  0  0
 89 90  2  0  0  0  0
 90 91  1  0  0  0  0
 91 92  1  0  0  0  0
 92 93  1  0  0  0  0
 91 94  2  0  0  0  0
 94 95  1  0  0  0  0
 90 96  1  0  0  0  0
 96 97  2  0  0  0  0
 97 98  1  0  0  0  0
 13  1  1  0  0  0  0
 29 17  1  0  0  0  0
 37 33  2  0  0  0  0
 54 50  2  0  0  0  0
 79 67  1  0  0  0  0
 95 83  1  0  0  0  0
 12  3  1  0  0  0  0
 28 19  1  0  0  0  0
 47 36  1  0  0  0  0
 64 53  1  0  0  0  0
 78 69  1  0  0  0  0
 94 85  1  0  0  0  0
 16  7  1  0  0  0  0
 32 23  1  0  0  0  0
 82 73  1  0  0  0  0
 98 89  1  0  0  0  0
  1 99  1  0  0  0  0
  2100  1  0  0  0  0
  5101  1  0  0  0  0
  5102  1  0  0  0  0
  6103  1  0  0  0  0
  6104  1  0  0  0  0
  6105  1  0  0  0  0
 10106  1  0  0  0  0
 10107  1  0  0  0  0
 11108  1  0  0  0  0
 11109  1  0  0  0  0
 11110  1  0  0  0  0
 14111  1  0  0  0  0
 18112  1  0  0  0  0
 21113  1  0  0  0  0
 21114  1  0  0  0  0
 22115  1  0  0  0  0
 22116  1  0  0  0  0
 22117  1  0  0  0  0
 26118  1  0  0  0  0
 26119  1  0  0  0  0
 27120  1  0  0  0  0
 27121  1  0  0  0  0
 27122  1  0  0  0  0
 30123  1  0  0  0  0
 38124  1  0  0  0  0
 45125  1  0  0  0  0
 45126  1  0  0  0  0
 46127  1  0  0  0  0
 46128  1  0  0  0  0
 47129  1  0  0  0  0
 47130  1  0  0  0  0
 48131  1  0  0  0  0
 49132  1  0  0  0  0
 55133  1  0  0  0  0
 62134  1  0  0  0  0
 62135  1  0  0  0  0
 63136  1  0  0  0  0
 63137  1  0  0  0  0
 64138  1  0  0  0  0
 64139  1  0  0  0  0
 65140  1  0  0  0  0
 66141  1  0  0  0  0
 68142  1  0  0  0  0
 71143  1  0  0  0  0
 71144  1  0  0  0  0
 72145  1  0  0  0  0
 72146  1  0  0  0  0
 72147  1  0  0  0  0
 76148  1  0  0  0  0
 76149  1  0  0  0  0
 77150  1  0  0  0  0
 77151  1  0  0  0  0
 77152  1  0  0  0  0
 80153  1  0  0  0  0
 84154  1  0  0  0  0
 87155  1  0  0  0  0
 87156  1  0  0  0  0
 88157  1  0  0  0  0
 88158  1  0  0  0  0
 88159  1  0  0  0  0
 92160  1  0  0  0  0
 92161  1  0  0  0  0
 93162  1  0  0  0  0
 93163  1  0  0  0  0
 93164  1  0  0  0  0
 96165  1  0  0  0  0
 97166  1  0  0  0  0
M  END
