238

C        -18.88450       -7.43110        7.40100
C        -18.57690       -6.11900        7.44750
C        -17.61510       -5.74140        6.46550
C        -17.02720       -4.48300        6.26230
C        -17.45370       -3.31790        7.01960
S        -16.31360       -2.32060        7.87240
C        -17.55330       -1.25590        8.44200
C        -17.23400       -0.11630        9.34530
C        -17.08820       -0.58780       10.79400
C        -18.77320       -1.66420        7.99170
Cl       -20.24600       -0.85740        8.34680
C        -18.72090       -2.82990        7.18110
Cl       -20.11250       -3.49190        6.42450
C        -16.01580       -4.40530        5.31330
C        -15.60120       -5.51380        4.53610
C        -16.21410       -6.76600        4.71400
C        -15.78990       -7.93000        3.95440
S        -14.11700       -8.40920        3.92040
C        -14.44890       -9.79010        2.92990
C        -13.34960      -10.68790        2.48130
C        -12.36920       -9.95080        1.56910
C        -15.77960       -9.85620        2.64480
C        -16.54390       -8.80850        3.22820
Cl       -18.22720       -8.64030        2.95560
Cl       -16.49690      -11.08050        1.67920
C        -17.20740       -6.84910        5.68320
S        -18.03640       -8.29960        6.17070
C        -14.57230       -5.16550        3.62650
C        -14.19400       -3.85740        3.70810
S        -15.11680       -2.97320        4.90430
C        -13.13880       -3.21720        2.98840
C        -12.41770       -3.72310        1.94580
C        -11.36320       -2.87700        1.52490
C        -10.39080       -3.12060        0.53770
C        -10.33380       -4.37480       -0.19500
S        -10.22870       -4.38090       -1.93120
C        -10.15300       -6.10740       -2.00100
C         -9.98240       -6.81750       -3.29820
C         -8.52880       -6.74050       -3.77060
C        -10.20070       -6.63360       -0.74500
Cl       -10.12450       -8.31430       -0.41100
C        -10.31160       -5.65690        0.28150
Cl       -10.32070       -6.07880        1.94690
C         -9.46220       -2.11380        0.30760
C         -9.45480       -0.89260        1.02470
C        -10.39890       -0.66600        2.04060
C        -10.36870        0.55300        2.83090
S        -11.79040        1.53540        3.02020
C        -10.94900        2.70770        3.97230
C        -11.65360        3.88550        4.54920
C        -12.18080        3.56710        5.95080
C         -9.64780        2.33720        4.14000
C         -9.31300        1.11750        3.49420
Cl        -7.75500        0.40700        3.63190
Cl        -8.50090        3.25320        5.02790
C        -11.33890       -1.66360        2.25750
S        -12.58210       -1.63060        3.47250
C         -8.40230       -0.04290        0.60980
C         -7.59040       -0.60050       -0.33210
S         -8.13260       -2.19470       -0.81660
C         -6.36090       -0.06790       -0.81650
C         -5.49750       -0.61650       -1.71730
C         -4.27510        0.09100       -1.83000
C         -3.15890       -0.21650       -2.62930
C         -3.15850       -1.35240       -3.53520
S         -3.59900       -2.94700       -2.99730
C         -3.32490       -3.63910       -4.56050
C         -3.58320       -5.08340       -4.81250
C         -5.07980       -5.39410       -4.74890
C         -2.92010       -2.67780       -5.43690
Cl        -2.55960       -2.97290       -7.08840
C         -2.81650       -1.38300       -4.85900
Cl        -2.39010       -0.00130       -5.77810
C         -2.03700        0.58940       -2.47810
C         -1.99760        1.70560       -1.60520
C         -3.14300        2.06560       -0.87290
C         -3.15790        3.23120       -0.00850
S         -3.74880        3.13280        1.62480
C         -3.46420        4.81490        1.91440
C         -3.81670        5.42930        3.22380
C         -5.33010        5.42520        3.44780
C         -2.94510        5.40500        0.80080
C         -2.76520        4.51140       -0.28960
Cl        -2.19710        5.03570       -1.82240
Cl        -2.53580        7.06860        0.69570
C         -4.24340        1.22540       -0.98230
S         -5.73060        1.40030       -0.09800
C         -0.69810        2.25900       -1.51490
C          0.22550        1.60720       -2.27770
S         -0.47830        0.29060       -3.19240
C          1.63150        1.83610       -2.31680
C          2.58070        1.07090       -2.92730
C          3.90530        1.49540       -2.66350
C          5.10930        0.87860       -3.05270
C          5.13190       -0.21910       -3.99990
S          6.08830       -1.64650       -3.72070
C          5.60790       -2.35880       -5.21920
C          6.15090       -3.67350       -5.65810
C          7.30020       -3.48170       -6.65130
C          4.76530       -1.52450       -5.89350
Cl         4.08420       -1.89140       -7.42500
C          4.49110       -0.31250       -5.20750
Cl         3.53060        0.93130       -5.89800
C          6.27140        1.36660       -2.47030
C          6.30450        2.48700       -1.60630
C          5.10740        3.14620       -1.27740
C          5.08750        4.29060       -0.38090
S          4.33960        5.78680       -0.85410
C          4.70820        6.53920        0.65880
C          4.36680        7.96520        0.91720
C          5.52030        8.88510        0.50990
C          5.37440        5.67020        1.47080
C          5.58730        4.39250        0.88770
Cl         6.32510        3.09850        1.74220
Cl         5.90300        6.05890        3.05630
C          3.93570        2.62300       -1.80700
S          2.32940        3.16160       -1.40670
C          7.61700        2.77250       -1.15800
C          8.55720        1.88970       -1.60500
S          7.85980        0.69460       -2.68870
C          9.91510        1.80280       -1.17750
S         10.48360        2.85360        0.09050
C         12.03370        2.04980        0.14930
C         12.07460        1.01180       -0.75220
C         10.89580        0.89890       -1.52010
C         10.84830       -0.10680       -2.62650
C         10.39260       -1.45200       -2.13890
O         10.22900       -1.79490       -1.00570
C         10.13730       -2.48190       -3.28710
F         11.25750       -3.17090       -3.55960
F          9.19500       -3.36640       -2.96370
F          9.75500       -1.90320       -4.43600
C         12.25450       -0.16010       -3.25840
C         13.33800       -0.58510       -2.26770
C         13.09920       -0.07330       -0.83380
C         12.97760        2.49210        1.14290
C         14.31200        2.63560        1.04080
C         15.12750        2.52300       -0.13350
C         14.77470        2.56740       -1.45030
C         15.87210        2.48640       -2.34100
C         15.85440        2.50650       -3.74640
C         14.60360        2.59360       -4.48210
S         13.43930        3.84730       -4.16050
C         12.34130        3.24680       -5.35560
C         11.00350        3.86760       -5.56000
C          9.94810        3.17590       -4.69320
C         12.85660        2.13660       -5.95610
Cl        12.03770        1.23960       -7.16930
C         14.14010        1.76690       -5.46880
Cl        14.94440        0.34840       -5.99740
C         17.08260        2.43420       -4.39360
C         18.31220        2.31240       -3.70170
C         18.32590        2.24670       -2.30100
C         19.55970        2.08590       -1.54600
S         20.87940        3.20790       -1.68870
C         21.82160        2.37230       -0.50050
C         23.19570        2.82220       -0.14540
C         24.23260        2.21970       -1.09650
C         21.14580        1.28110       -0.04310
C         19.86070        1.11950       -0.62750
Cl        18.84140       -0.20830       -0.25960
Cl        21.76360        0.19700        1.13530
C         17.10230        2.35070       -1.65140
S         16.86460        2.38020        0.06930
C         19.41780        2.26450       -4.60010
C         19.04650        2.37350       -5.89190
S         17.33890        2.52500       -6.11270
H        -19.57280       -7.96820        8.02400
H        -18.99580       -5.43430        8.16110
H        -18.03830        0.61830        9.27780
H        -16.30280        0.35190        9.02140
H        -16.28190       -1.31270       10.87450
H        -18.00990       -1.05270       11.13390
H        -16.86530        0.25650       11.44060
H        -13.78880      -11.53460        1.95170
H        -12.81180      -11.06690        3.35380
H        -12.87830       -9.58640        0.68020
H        -11.93220       -9.10300        2.09160
H        -11.56980      -10.61940        1.26150
H        -14.11880       -5.86520        2.95010
H        -12.63730       -4.66750        1.48540
H        -10.63100       -6.36400       -4.04980
H        -10.27390       -7.86090       -3.16740
H         -7.86970       -7.20010       -3.03850
H         -8.23130       -5.70330       -3.90370
H         -8.41560       -7.26120       -4.71740
H        -12.48520        4.16220        3.90040
H        -10.95610        4.72350        4.60350
H        -12.69920        4.43020        6.35960
H        -12.87220        2.72830        5.91210
H        -11.35830        3.30890        6.61250
H         -8.23830        0.94530        0.99820
H         -5.72630       -1.51580       -2.25930
H         -3.05950       -5.68310       -4.06470
H         -3.19130       -5.33790       -5.79830
H         -5.47370       -5.14460       -3.76640
H         -5.25110       -6.45060       -4.93560
H         -5.61740       -4.81670       -5.49690
H         -3.33430        4.86850        4.02800
H         -3.43940        6.45290        3.24070
H         -5.82890        6.00590        2.67580
H         -5.71330        4.40810        3.41900
H         -5.56530        5.85860        4.41600
H         -0.43850        3.07960       -0.87110
H          2.33400        0.19820       -3.50400
H          5.35290       -4.24820       -6.13360
H          6.50910       -4.22190       -4.78580
H          7.69910       -4.44790       -6.94800
H          6.94980       -2.96140       -7.53870
H          8.09700       -2.89730       -6.19930
H          4.16030        8.09080        1.98180
H          3.47170        8.22960        0.35260
H          5.25440        9.92190        0.69590
H          5.74280        8.76540       -0.54740
H          6.41240        8.64580        1.08240
H          7.85930        3.58950       -0.50340
H         10.14960        0.21190       -3.40750
H         12.26230       -0.82190       -4.12410
H         12.46170        0.84980       -3.61340
H         13.40410       -1.67390       -2.24520
H         14.29340       -0.20890       -2.63710
H         12.70790       -0.89690       -0.22790
H         14.03670        0.23990       -0.38030
H         12.52390        2.76380        2.08830
H         14.85600        2.90320        1.93720
H         13.75790        2.68110       -1.77310
H         11.05150        4.92630       -5.30170
H         10.72710        3.77430       -6.61180
H          8.97990        3.64910       -4.83110
H          9.86290        2.12810       -4.97020
H         10.21970        3.24200       -3.64200
H         23.24530        3.91120       -0.19540
H         23.41280        2.50770        0.87710
H         24.20490        1.13430       -1.04480
H         24.02890        2.52530       -2.12000
H         25.22890        2.55630       -0.82360
H         20.43730        2.15660       -4.27880
H         19.67540        2.36940       -6.76060
