
  xtb     03022211253D
 energy: -475.276794787754 gnorm: 0.001151040907 xtb: 6.4.1 (unknown)
238264  0     0  0            999 V2000
  -18.8845   -7.4311    7.4010 C   0  0  0  0  0  0  0  0  0  0  0  0
  -18.5769   -6.1190    7.4475 C   0  0  0  0  0  0  0  0  0  0  0  0
  -17.6151   -5.7414    6.4655 C   0  0  0  0  0  0  0  0  0  0  0  0
  -17.0272   -4.4830    6.2623 C   0  0  0  0  0  0  0  0  0  0  0  0
  -17.4537   -3.3179    7.0196 C   0  0  0  0  0  0  0  0  0  0  0  0
  -16.3136   -2.3206    7.8724 S   0  0  0  0  0  0  0  0  0  0  0  0
  -17.5533   -1.2559    8.4420 C   0  0  0  0  0  0  0  0  0  0  0  0
  -17.2340   -0.1163    9.3453 C   0  0  0  0  0  0  0  0  0  0  0  0
  -17.0882   -0.5878   10.7940 C   0  0  0  0  0  0  0  0  0  0  0  0
  -18.7732   -1.6642    7.9917 C   0  0  0  0  0  0  0  0  0  0  0  0
  -20.2460   -0.8574    8.3468 Cl  0  0  0  0  0  0  0  0  0  0  0  0
  -18.7209   -2.8299    7.1811 C   0  0  0  0  0  0  0  0  0  0  0  0
  -20.1125   -3.4919    6.4245 Cl  0  0  0  0  0  0  0  0  0  0  0  0
  -16.0158   -4.4053    5.3133 C   0  0  0  0  0  0  0  0  0  0  0  0
  -15.6012   -5.5138    4.5361 C   0  0  0  0  0  0  0  0  0  0  0  0
  -16.2141   -6.7660    4.7140 C   0  0  0  0  0  0  0  0  0  0  0  0
  -15.7899   -7.9300    3.9544 C   0  0  0  0  0  0  0  0  0  0  0  0
  -14.1170   -8.4092    3.9204 S   0  0  0  0  0  0  0  0  0  0  0  0
  -14.4489   -9.7901    2.9299 C   0  0  0  0  0  0  0  0  0  0  0  0
  -13.3496  -10.6879    2.4813 C   0  0  0  0  0  0  0  0  0  0  0  0
  -12.3692   -9.9508    1.5691 C   0  0  0  0  0  0  0  0  0  0  0  0
  -15.7796   -9.8562    2.6448 C   0  0  0  0  0  0  0  0  0  0  0  0
  -16.5439   -8.8085    3.2282 C   0  0  0  0  0  0  0  0  0  0  0  0
  -18.2272   -8.6403    2.9556 Cl  0  0  0  0  0  0  0  0  0  0  0  0
  -16.4969  -11.0805    1.6792 Cl  0  0  0  0  0  0  0  0  0  0  0  0
  -17.2074   -6.8491    5.6832 C   0  0  0  0  0  0  0  0  0  0  0  0
  -18.0364   -8.2996    6.1707 S   0  0  0  0  0  0  0  0  0  0  0  0
  -14.5723   -5.1655    3.6265 C   0  0  0  0  0  0  0  0  0  0  0  0
  -14.1940   -3.8574    3.7081 C   0  0  0  0  0  0  0  0  0  0  0  0
  -15.1168   -2.9732    4.9043 S   0  0  0  0  0  0  0  0  0  0  0  0
  -13.1388   -3.2172    2.9884 C   0  0  0  0  0  0  0  0  0  0  0  0
  -12.4177   -3.7231    1.9458 C   0  0  0  0  0  0  0  0  0  0  0  0
  -11.3632   -2.8770    1.5249 C   0  0  0  0  0  0  0  0  0  0  0  0
  -10.3908   -3.1206    0.5377 C   0  0  0  0  0  0  0  0  0  0  0  0
  -10.3338   -4.3748   -0.1950 C   0  0  0  0  0  0  0  0  0  0  0  0
  -10.2287   -4.3809   -1.9312 S   0  0  0  0  0  0  0  0  0  0  0  0
  -10.1530   -6.1074   -2.0010 C   0  0  0  0  0  0  0  0  0  0  0  0
   -9.9824   -6.8175   -3.2982 C   0  0  0  0  0  0  0  0  0  0  0  0
   -8.5288   -6.7405   -3.7706 C   0  0  0  0  0  0  0  0  0  0  0  0
  -10.2007   -6.6336   -0.7450 C   0  0  0  0  0  0  0  0  0  0  0  0
  -10.1245   -8.3143   -0.4110 Cl  0  0  0  0  0  0  0  0  0  0  0  0
  -10.3116   -5.6569    0.2815 C   0  0  0  0  0  0  0  0  0  0  0  0
  -10.3207   -6.0788    1.9469 Cl  0  0  0  0  0  0  0  0  0  0  0  0
   -9.4622   -2.1138    0.3076 C   0  0  0  0  0  0  0  0  0  0  0  0
   -9.4548   -0.8926    1.0247 C   0  0  0  0  0  0  0  0  0  0  0  0
  -10.3989   -0.6660    2.0406 C   0  0  0  0  0  0  0  0  0  0  0  0
  -10.3687    0.5530    2.8309 C   0  0  0  0  0  0  0  0  0  0  0  0
  -11.7904    1.5354    3.0202 S   0  0  0  0  0  0  0  0  0  0  0  0
  -10.9490    2.7077    3.9723 C   0  0  0  0  0  0  0  0  0  0  0  0
  -11.6536    3.8855    4.5492 C   0  0  0  0  0  0  0  0  0  0  0  0
  -12.1808    3.5671    5.9508 C   0  0  0  0  0  0  0  0  0  0  0  0
   -9.6478    2.3372    4.1400 C   0  0  0  0  0  0  0  0  0  0  0  0
   -9.3130    1.1175    3.4942 C   0  0  0  0  0  0  0  0  0  0  0  0
   -7.7550    0.4070    3.6319 Cl  0  0  0  0  0  0  0  0  0  0  0  0
   -8.5009    3.2532    5.0279 Cl  0  0  0  0  0  0  0  0  0  0  0  0
  -11.3389   -1.6636    2.2575 C   0  0  0  0  0  0  0  0  0  0  0  0
  -12.5821   -1.6306    3.4725 S   0  0  0  0  0  0  0  0  0  0  0  0
   -8.4023   -0.0429    0.6098 C   0  0  0  0  0  0  0  0  0  0  0  0
   -7.5904   -0.6005   -0.3321 C   0  0  0  0  0  0  0  0  0  0  0  0
   -8.1326   -2.1947   -0.8166 S   0  0  0  0  0  0  0  0  0  0  0  0
   -6.3609   -0.0679   -0.8165 C   0  0  0  0  0  0  0  0  0  0  0  0
   -5.4975   -0.6165   -1.7173 C   0  0  0  0  0  0  0  0  0  0  0  0
   -4.2751    0.0910   -1.8300 C   0  0  0  0  0  0  0  0  0  0  0  0
   -3.1589   -0.2165   -2.6293 C   0  0  0  0  0  0  0  0  0  0  0  0
   -3.1585   -1.3524   -3.5352 C   0  0  0  0  0  0  0  0  0  0  0  0
   -3.5990   -2.9470   -2.9973 S   0  0  0  0  0  0  0  0  0  0  0  0
   -3.3249   -3.6391   -4.5605 C   0  0  0  0  0  0  0  0  0  0  0  0
   -3.5832   -5.0834   -4.8125 C   0  0  0  0  0  0  0  0  0  0  0  0
   -5.0798   -5.3941   -4.7489 C   0  0  0  0  0  0  0  0  0  0  0  0
   -2.9201   -2.6778   -5.4369 C   0  0  0  0  0  0  0  0  0  0  0  0
   -2.5596   -2.9729   -7.0884 Cl  0  0  0  0  0  0  0  0  0  0  0  0
   -2.8165   -1.3830   -4.8590 C   0  0  0  0  0  0  0  0  0  0  0  0
   -2.3901   -0.0013   -5.7781 Cl  0  0  0  0  0  0  0  0  0  0  0  0
   -2.0370    0.5894   -2.4781 C   0  0  0  0  0  0  0  0  0  0  0  0
   -1.9976    1.7056   -1.6052 C   0  0  0  0  0  0  0  0  0  0  0  0
   -3.1430    2.0656   -0.8729 C   0  0  0  0  0  0  0  0  0  0  0  0
   -3.1579    3.2312   -0.0085 C   0  0  0  0  0  0  0  0  0  0  0  0
   -3.7488    3.1328    1.6248 S   0  0  0  0  0  0  0  0  0  0  0  0
   -3.4642    4.8149    1.9144 C   0  0  0  0  0  0  0  0  0  0  0  0
   -3.8167    5.4293    3.2238 C   0  0  0  0  0  0  0  0  0  0  0  0
   -5.3301    5.4252    3.4478 C   0  0  0  0  0  0  0  0  0  0  0  0
   -2.9451    5.4050    0.8008 C   0  0  0  0  0  0  0  0  0  0  0  0
   -2.7652    4.5114   -0.2896 C   0  0  0  0  0  0  0  0  0  0  0  0
   -2.1971    5.0357   -1.8224 Cl  0  0  0  0  0  0  0  0  0  0  0  0
   -2.5358    7.0686    0.6957 Cl  0  0  0  0  0  0  0  0  0  0  0  0
   -4.2434    1.2254   -0.9823 C   0  0  0  0  0  0  0  0  0  0  0  0
   -5.7306    1.4003   -0.0980 S   0  0  0  0  0  0  0  0  0  0  0  0
   -0.6981    2.2590   -1.5149 C   0  0  0  0  0  0  0  0  0  0  0  0
    0.2255    1.6072   -2.2777 C   0  0  0  0  0  0  0  0  0  0  0  0
   -0.4783    0.2906   -3.1924 S   0  0  0  0  0  0  0  0  0  0  0  0
    1.6315    1.8361   -2.3168 C   0  0  0  0  0  0  0  0  0  0  0  0
    2.5807    1.0709   -2.9273 C   0  0  0  0  0  0  0  0  0  0  0  0
    3.9053    1.4954   -2.6635 C   0  0  0  0  0  0  0  0  0  0  0  0
    5.1093    0.8786   -3.0527 C   0  0  0  0  0  0  0  0  0  0  0  0
    5.1319   -0.2191   -3.9999 C   0  0  0  0  0  0  0  0  0  0  0  0
    6.0883   -1.6465   -3.7207 S   0  0  0  0  0  0  0  0  0  0  0  0
    5.6079   -2.3588   -5.2192 C   0  0  0  0  0  0  0  0  0  0  0  0
    6.1509   -3.6735   -5.6581 C   0  0  0  0  0  0  0  0  0  0  0  0
    7.3002   -3.4817   -6.6513 C   0  0  0  0  0  0  0  0  0  0  0  0
    4.7653   -1.5245   -5.8935 C   0  0  0  0  0  0  0  0  0  0  0  0
    4.0842   -1.8914   -7.4250 Cl  0  0  0  0  0  0  0  0  0  0  0  0
    4.4911   -0.3125   -5.2075 C   0  0  0  0  0  0  0  0  0  0  0  0
    3.5306    0.9313   -5.8980 Cl  0  0  0  0  0  0  0  0  0  0  0  0
    6.2714    1.3666   -2.4703 C   0  0  0  0  0  0  0  0  0  0  0  0
    6.3045    2.4870   -1.6063 C   0  0  0  0  0  0  0  0  0  0  0  0
    5.1074    3.1462   -1.2774 C   0  0  0  0  0  0  0  0  0  0  0  0
    5.0875    4.2906   -0.3809 C   0  0  0  0  0  0  0  0  0  0  0  0
    4.3396    5.7868   -0.8541 S   0  0  0  0  0  0  0  0  0  0  0  0
    4.7082    6.5392    0.6588 C   0  0  0  0  0  0  0  0  0  0  0  0
    4.3668    7.9652    0.9172 C   0  0  0  0  0  0  0  0  0  0  0  0
    5.5203    8.8851    0.5099 C   0  0  0  0  0  0  0  0  0  0  0  0
    5.3744    5.6702    1.4708 C   0  0  0  0  0  0  0  0  0  0  0  0
    5.5873    4.3925    0.8877 C   0  0  0  0  0  0  0  0  0  0  0  0
    6.3251    3.0985    1.7422 Cl  0  0  0  0  0  0  0  0  0  0  0  0
    5.9030    6.0589    3.0563 Cl  0  0  0  0  0  0  0  0  0  0  0  0
    3.9357    2.6230   -1.8070 C   0  0  0  0  0  0  0  0  0  0  0  0
    2.3294    3.1616   -1.4067 S   0  0  0  0  0  0  0  0  0  0  0  0
    7.6170    2.7725   -1.1580 C   0  0  0  0  0  0  0  0  0  0  0  0
    8.5572    1.8897   -1.6050 C   0  0  0  0  0  0  0  0  0  0  0  0
    7.8598    0.6946   -2.6887 S   0  0  0  0  0  0  0  0  0  0  0  0
    9.9151    1.8028   -1.1775 C   0  0  0  0  0  0  0  0  0  0  0  0
   10.4836    2.8536    0.0905 S   0  0  0  0  0  0  0  0  0  0  0  0
   12.0337    2.0498    0.1493 C   0  0  0  0  0  0  0  0  0  0  0  0
   12.0746    1.0118   -0.7522 C   0  0  0  0  0  0  0  0  0  0  0  0
   10.8958    0.8989   -1.5201 C   0  0  0  0  0  0  0  0  0  0  0  0
   10.8483   -0.1068   -2.6265 C   0  0  0  0  0  0  0  0  0  0  0  0
   10.3926   -1.4520   -2.1389 C   0  0  0  0  0  0  0  0  0  0  0  0
   10.2290   -1.7949   -1.0057 O   0  0  0  0  0  0  0  0  0  0  0  0
   10.1373   -2.4819   -3.2871 C   0  0  0  0  0  0  0  0  0  0  0  0
   11.2575   -3.1709   -3.5596 F   0  0  0  0  0  0  0  0  0  0  0  0
    9.1950   -3.3664   -2.9637 F   0  0  0  0  0  0  0  0  0  0  0  0
    9.7550   -1.9032   -4.4360 F   0  0  0  0  0  0  0  0  0  0  0  0
   12.2545   -0.1601   -3.2584 C   0  0  0  0  0  0  0  0  0  0  0  0
   13.3380   -0.5851   -2.2677 C   0  0  0  0  0  0  0  0  0  0  0  0
   13.0992   -0.0733   -0.8338 C   0  0  0  0  0  0  0  0  0  0  0  0
   12.9776    2.4921    1.1429 C   0  0  0  0  0  0  0  0  0  0  0  0
   14.3120    2.6356    1.0408 C   0  0  0  0  0  0  0  0  0  0  0  0
   15.1275    2.5230   -0.1335 C   0  0  0  0  0  0  0  0  0  0  0  0
   14.7747    2.5674   -1.4503 C   0  0  0  0  0  0  0  0  0  0  0  0
   15.8721    2.4864   -2.3410 C   0  0  0  0  0  0  0  0  0  0  0  0
   15.8544    2.5065   -3.7464 C   0  0  0  0  0  0  0  0  0  0  0  0
   14.6036    2.5936   -4.4821 C   0  0  0  0  0  0  0  0  0  0  0  0
   13.4393    3.8473   -4.1605 S   0  0  0  0  0  0  0  0  0  0  0  0
   12.3413    3.2468   -5.3556 C   0  0  0  0  0  0  0  0  0  0  0  0
   11.0035    3.8676   -5.5600 C   0  0  0  0  0  0  0  0  0  0  0  0
    9.9481    3.1759   -4.6932 C   0  0  0  0  0  0  0  0  0  0  0  0
   12.8566    2.1366   -5.9561 C   0  0  0  0  0  0  0  0  0  0  0  0
   12.0377    1.2396   -7.1693 Cl  0  0  0  0  0  0  0  0  0  0  0  0
   14.1401    1.7669   -5.4688 C   0  0  0  0  0  0  0  0  0  0  0  0
   14.9444    0.3484   -5.9974 Cl  0  0  0  0  0  0  0  0  0  0  0  0
   17.0826    2.4342   -4.3936 C   0  0  0  0  0  0  0  0  0  0  0  0
   18.3122    2.3124   -3.7017 C   0  0  0  0  0  0  0  0  0  0  0  0
   18.3259    2.2467   -2.3010 C   0  0  0  0  0  0  0  0  0  0  0  0
   19.5597    2.0859   -1.5460 C   0  0  0  0  0  0  0  0  0  0  0  0
   20.8794    3.2079   -1.6887 S   0  0  0  0  0  0  0  0  0  0  0  0
   21.8216    2.3723   -0.5005 C   0  0  0  0  0  0  0  0  0  0  0  0
   23.1957    2.8222   -0.1454 C   0  0  0  0  0  0  0  0  0  0  0  0
   24.2326    2.2197   -1.0965 C   0  0  0  0  0  0  0  0  0  0  0  0
   21.1458    1.2811   -0.0431 C   0  0  0  0  0  0  0  0  0  0  0  0
   19.8607    1.1195   -0.6275 C   0  0  0  0  0  0  0  0  0  0  0  0
   18.8414   -0.2083   -0.2596 Cl  0  0  0  0  0  0  0  0  0  0  0  0
   21.7636    0.1970    1.1353 Cl  0  0  0  0  0  0  0  0  0  0  0  0
   17.1023    2.3507   -1.6514 C   0  0  0  0  0  0  0  0  0  0  0  0
   16.8646    2.3802    0.0693 S   0  0  0  0  0  0  0  0  0  0  0  0
   19.4178    2.2645   -4.6001 C   0  0  0  0  0  0  0  0  0  0  0  0
   19.0465    2.3735   -5.8919 C   0  0  0  0  0  0  0  0  0  0  0  0
   17.3389    2.5250   -6.1127 S   0  0  0  0  0  0  0  0  0  0  0  0
  -19.5728   -7.9682    8.0240 H   0  0  0  0  0  0  0  0  0  0  0  0
  -18.9958   -5.4343    8.1611 H   0  0  0  0  0  0  0  0  0  0  0  0
  -18.0383    0.6183    9.2778 H   0  0  0  0  0  0  0  0  0  0  0  0
  -16.3028    0.3519    9.0214 H   0  0  0  0  0  0  0  0  0  0  0  0
  -16.2819   -1.3127   10.8745 H   0  0  0  0  0  0  0  0  0  0  0  0
  -18.0099   -1.0527   11.1339 H   0  0  0  0  0  0  0  0  0  0  0  0
  -16.8653    0.2565   11.4406 H   0  0  0  0  0  0  0  0  0  0  0  0
  -13.7888  -11.5346    1.9517 H   0  0  0  0  0  0  0  0  0  0  0  0
  -12.8118  -11.0669    3.3538 H   0  0  0  0  0  0  0  0  0  0  0  0
  -12.8783   -9.5864    0.6802 H   0  0  0  0  0  0  0  0  0  0  0  0
  -11.9322   -9.1030    2.0916 H   0  0  0  0  0  0  0  0  0  0  0  0
  -11.5698  -10.6194    1.2615 H   0  0  0  0  0  0  0  0  0  0  0  0
  -14.1188   -5.8652    2.9501 H   0  0  0  0  0  0  0  0  0  0  0  0
  -12.6373   -4.6675    1.4854 H   0  0  0  0  0  0  0  0  0  0  0  0
  -10.6310   -6.3640   -4.0498 H   0  0  0  0  0  0  0  0  0  0  0  0
  -10.2739   -7.8609   -3.1674 H   0  0  0  0  0  0  0  0  0  0  0  0
   -7.8697   -7.2001   -3.0385 H   0  0  0  0  0  0  0  0  0  0  0  0
   -8.2313   -5.7033   -3.9037 H   0  0  0  0  0  0  0  0  0  0  0  0
   -8.4156   -7.2612   -4.7174 H   0  0  0  0  0  0  0  0  0  0  0  0
  -12.4852    4.1622    3.9004 H   0  0  0  0  0  0  0  0  0  0  0  0
  -10.9561    4.7235    4.6035 H   0  0  0  0  0  0  0  0  0  0  0  0
  -12.6992    4.4302    6.3596 H   0  0  0  0  0  0  0  0  0  0  0  0
  -12.8722    2.7283    5.9121 H   0  0  0  0  0  0  0  0  0  0  0  0
  -11.3583    3.3089    6.6125 H   0  0  0  0  0  0  0  0  0  0  0  0
   -8.2383    0.9453    0.9982 H   0  0  0  0  0  0  0  0  0  0  0  0
   -5.7263   -1.5158   -2.2593 H   0  0  0  0  0  0  0  0  0  0  0  0
   -3.0595   -5.6831   -4.0647 H   0  0  0  0  0  0  0  0  0  0  0  0
   -3.1913   -5.3379   -5.7983 H   0  0  0  0  0  0  0  0  0  0  0  0
   -5.4737   -5.1446   -3.7664 H   0  0  0  0  0  0  0  0  0  0  0  0
   -5.2511   -6.4506   -4.9356 H   0  0  0  0  0  0  0  0  0  0  0  0
   -5.6174   -4.8167   -5.4969 H   0  0  0  0  0  0  0  0  0  0  0  0
   -3.3343    4.8685    4.0280 H   0  0  0  0  0  0  0  0  0  0  0  0
   -3.4394    6.4529    3.2407 H   0  0  0  0  0  0  0  0  0  0  0  0
   -5.8289    6.0059    2.6758 H   0  0  0  0  0  0  0  0  0  0  0  0
   -5.7133    4.4081    3.4190 H   0  0  0  0  0  0  0  0  0  0  0  0
   -5.5653    5.8586    4.4160 H   0  0  0  0  0  0  0  0  0  0  0  0
   -0.4385    3.0796   -0.8711 H   0  0  0  0  0  0  0  0  0  0  0  0
    2.3340    0.1982   -3.5040 H   0  0  0  0  0  0  0  0  0  0  0  0
    5.3529   -4.2482   -6.1336 H   0  0  0  0  0  0  0  0  0  0  0  0
    6.5091   -4.2219   -4.7858 H   0  0  0  0  0  0  0  0  0  0  0  0
    7.6991   -4.4479   -6.9480 H   0  0  0  0  0  0  0  0  0  0  0  0
    6.9498   -2.9614   -7.5387 H   0  0  0  0  0  0  0  0  0  0  0  0
    8.0970   -2.8973   -6.1993 H   0  0  0  0  0  0  0  0  0  0  0  0
    4.1603    8.0908    1.9818 H   0  0  0  0  0  0  0  0  0  0  0  0
    3.4717    8.2296    0.3526 H   0  0  0  0  0  0  0  0  0  0  0  0
    5.2544    9.9219    0.6959 H   0  0  0  0  0  0  0  0  0  0  0  0
    5.7428    8.7654   -0.5474 H   0  0  0  0  0  0  0  0  0  0  0  0
    6.4124    8.6458    1.0824 H   0  0  0  0  0  0  0  0  0  0  0  0
    7.8593    3.5895   -0.5034 H   0  0  0  0  0  0  0  0  0  0  0  0
   10.1496    0.2119   -3.4075 H   0  0  0  0  0  0  0  0  0  0  0  0
   12.2623   -0.8219   -4.1241 H   0  0  0  0  0  0  0  0  0  0  0  0
   12.4617    0.8498   -3.6134 H   0  0  0  0  0  0  0  0  0  0  0  0
   13.4041   -1.6739   -2.2452 H   0  0  0  0  0  0  0  0  0  0  0  0
   14.2934   -0.2089   -2.6371 H   0  0  0  0  0  0  0  0  0  0  0  0
   12.7079   -0.8969   -0.2279 H   0  0  0  0  0  0  0  0  0  0  0  0
   14.0367    0.2399   -0.3803 H   0  0  0  0  0  0  0  0  0  0  0  0
   12.5239    2.7638    2.0883 H   0  0  0  0  0  0  0  0  0  0  0  0
   14.8560    2.9032    1.9372 H   0  0  0  0  0  0  0  0  0  0  0  0
   13.7579    2.6811   -1.7731 H   0  0  0  0  0  0  0  0  0  0  0  0
   11.0515    4.9263   -5.3017 H   0  0  0  0  0  0  0  0  0  0  0  0
   10.7271    3.7743   -6.6118 H   0  0  0  0  0  0  0  0  0  0  0  0
    8.9799    3.6491   -4.8311 H   0  0  0  0  0  0  0  0  0  0  0  0
    9.8629    2.1281   -4.9702 H   0  0  0  0  0  0  0  0  0  0  0  0
   10.2197    3.2420   -3.6420 H   0  0  0  0  0  0  0  0  0  0  0  0
   23.2453    3.9112   -0.1954 H   0  0  0  0  0  0  0  0  0  0  0  0
   23.4128    2.5077    0.8771 H   0  0  0  0  0  0  0  0  0  0  0  0
   24.2049    1.1343   -1.0448 H   0  0  0  0  0  0  0  0  0  0  0  0
   24.0289    2.5253   -2.1200 H   0  0  0  0  0  0  0  0  0  0  0  0
   25.2289    2.5563   -0.8236 H   0  0  0  0  0  0  0  0  0  0  0  0
   20.4373    2.1566   -4.2788 H   0  0  0  0  0  0  0  0  0  0  0  0
   19.6754    2.3694   -6.7606 H   0  0  0  0  0  0  0  0  0  0  0  0
  1  2  2  0  0  0  0
  2  3  1  0  0  0  0
  3  4  2  0  0  0  0
  4  5  1  0  0  0  0
  5  6  1  0  0  0  0
  6  7  1  0  0  0  0
  7  8  1  0  0  0  0
  8  9  1  0  0  0  0
  7 10  2  0  0  0  0
 10 11  1  0  0  0  0
 10 12  1  0  0  0  0
 12 13  1  0  0  0  0
  4 14  1  0  0  0  0
 14 15  2  0  0  0  0
 15 16  1  0  0  0  0
 16 17  1  0  0  0  0
 17 18  1  0  0  0  0
 18 19  1  0  0  0  0
 19 20  1  0  0  0  0
 20 21  1  0  0  0  0
 19 22  2  0  0  0  0
 22 23  1  0  0  0  0
 23 24  1  0  0  0  0
 22 25  1  0  0  0  0
 16 26  2  0  0  0  0
 26 27  1  0  0  0  0
 15 28  1  0  0  0  0
 28 29  2  0  0  0  0
 29 30  1  0  0  0  0
 29 31  1  0  0  0  0
 31 32  2  0  0  0  0
 32 33  1  0  0  0  0
 33 34  2  0  0  0  0
 34 35  1  0  0  0  0
 35 36  1  0  0  0  0
 36 37  1  0  0  0  0
 37 38  1  0  0  0  0
 38 39  1  0  0  0  0
 37 40  2  0  0  0  0
 40 41  1  0  0  0  0
 40 42  1  0  0  0  0
 42 43  1  0  0  0  0
 34 44  1  0  0  0  0
 44 45  2  0  0  0  0
 45 46  1  0  0  0  0
 46 47  1  0  0  0  0
 47 48  1  0  0  0  0
 48 49  1  0  0  0  0
 49 50  1  0  0  0  0
 50 51  1  0  0  0  0
 49 52  2  0  0  0  0
 52 53  1  0  0  0  0
 53 54  1  0  0  0  0
 52 55  1  0  0  0  0
 46 56  2  0  0  0  0
 56 57  1  0  0  0  0
 45 58  1  0  0  0  0
 58 59  2  0  0  0  0
 59 60  1  0  0  0  0
 59 61  1  0  0  0  0
 61 62  2  0  0  0  0
 62 63  1  0  0  0  0
 63 64  2  0  0  0  0
 64 65  1  0  0  0  0
 65 66  1  0  0  0  0
 66 67  1  0  0  0  0
 67 68  1  0  0  0  0
 68 69  1  0  0  0  0
 67 70  2  0  0  0  0
 70 71  1  0  0  0  0
 70 72  1  0  0  0  0
 72 73  1  0  0  0  0
 64 74  1  0  0  0  0
 74 75  2  0  0  0  0
 75 76  1  0  0  0  0
 76 77  1  0  0  0  0
 77 78  1  0  0  0  0
 78 79  1  0  0  0  0
 79 80  1  0  0  0  0
 80 81  1  0  0  0  0
 79 82  2  0  0  0  0
 82 83  1  0  0  0  0
 83 84  1  0  0  0  0
 82 85  1  0  0  0  0
 76 86  2  0  0  0  0
 86 87  1  0  0  0  0
 75 88  1  0  0  0  0
 88 89  2  0  0  0  0
 89 90  1  0  0  0  0
 89 91  1  0  0  0  0
 91 92  2  0  0  0  0
 92 93  1  0  0  0  0
 93 94  2  0  0  0  0
 94 95  1  0  0  0  0
 95 96  1  0  0  0  0
 96 97  1  0  0  0  0
 97 98  1  0  0  0  0
 98 99  1  0  0  0  0
 97100  2  0  0  0  0
100101  1  0  0  0  0
100102  1  0  0  0  0
102103  1  0  0  0  0
 94104  1  0  0  0  0
104105  2  0  0  0  0
105106  1  0  0  0  0
106107  1  0  0  0  0
107108  1  0  0  0  0
108109  1  0  0  0  0
109110  1  0  0  0  0
110111  1  0  0  0  0
109112  2  0  0  0  0
112113  1  0  0  0  0
113114  1  0  0  0  0
112115  1  0  0  0  0
106116  2  0  0  0  0
116117  1  0  0  0  0
105118  1  0  0  0  0
118119  2  0  0  0  0
119120  1  0  0  0  0
119121  1  0  0  0  0
121122  1  0  0  0  0
122123  1  0  0  0  0
123124  2  0  0  0  0
124125  1  0  0  0  0
125126  1  0  0  0  0
126127  1  0  0  0  0
127128  2  0  0  0  0
127129  1  0  0  0  0
129130  1  0  0  0  0
129131  1  0  0  0  0
129132  1  0  0  0  0
126133  1  0  0  0  0
133134  1  0  0  0  0
134135  1  0  0  0  0
123136  1  0  0  0  0
136137  2  0  0  0  0
137138  1  0  0  0  0
138139  2  0  0  0  0
139140  1  0  0  0  0
140141  2  0  0  0  0
141142  1  0  0  0  0
142143  1  0  0  0  0
143144  1  0  0  0  0
144145  1  0  0  0  0
145146  1  0  0  0  0
144147  2  0  0  0  0
147148  1  0  0  0  0
147149  1  0  0  0  0
149150  1  0  0  0  0
141151  1  0  0  0  0
151152  2  0  0  0  0
152153  1  0  0  0  0
153154  1  0  0  0  0
154155  1  0  0  0  0
155156  1  0  0  0  0
156157  1  0  0  0  0
157158  1  0  0  0  0
156159  2  0  0  0  0
159160  1  0  0  0  0
160161  1  0  0  0  0
159162  1  0  0  0  0
153163  2  0  0  0  0
163164  1  0  0  0  0
152165  1  0  0  0  0
165166  2  0  0  0  0
166167  1  0  0  0  0
 27  1  1  0  0  0  0
 57 31  1  0  0  0  0
 87 61  1  0  0  0  0
117 91  1  0  0  0  0
125121  2  0  0  0  0
164138  1  0  0  0  0
 26  3  1  0  0  0  0
 56 33  1  0  0  0  0
 86 63  1  0  0  0  0
116 93  1  0  0  0  0
135124  1  0  0  0  0
163140  1  0  0  0  0
 12  5  2  0  0  0  0
 30 14  1  0  0  0  0
 42 35  2  0  0  0  0
 60 44  1  0  0  0  0
 72 65  2  0  0  0  0
 90 74  1  0  0  0  0
102 95  2  0  0  0  0
120104  1  0  0  0  0
149142  2  0  0  0  0
167151  1  0  0  0  0
 23 17  2  0  0  0  0
 53 47  2  0  0  0  0
 83 77  2  0  0  0  0
113107  2  0  0  0  0
160154  2  0  0  0  0
  1168  1  0  0  0  0
  2169  1  0  0  0  0
  8170  1  0  0  0  0
  8171  1  0  0  0  0
  9172  1  0  0  0  0
  9173  1  0  0  0  0
  9174  1  0  0  0  0
 20175  1  0  0  0  0
 20176  1  0  0  0  0
 21177  1  0  0  0  0
 21178  1  0  0  0  0
 21179  1  0  0  0  0
 28180  1  0  0  0  0
 32181  1  0  0  0  0
 38182  1  0  0  0  0
 38183  1  0  0  0  0
 39184  1  0  0  0  0
 39185  1  0  0  0  0
 39186  1  0  0  0  0
 50187  1  0  0  0  0
 50188  1  0  0  0  0
 51189  1  0  0  0  0
 51190  1  0  0  0  0
 51191  1  0  0  0  0
 58192  1  0  0  0  0
 62193  1  0  0  0  0
 68194  1  0  0  0  0
 68195  1  0  0  0  0
 69196  1  0  0  0  0
 69197  1  0  0  0  0
 69198  1  0  0  0  0
 80199  1  0  0  0  0
 80200  1  0  0  0  0
 81201  1  0  0  0  0
 81202  1  0  0  0  0
 81203  1  0  0  0  0
 88204  1  0  0  0  0
 92205  1  0  0  0  0
 98206  1  0  0  0  0
 98207  1  0  0  0  0
 99208  1  0  0  0  0
 99209  1  0  0  0  0
 99210  1  0  0  0  0
110211  1  0  0  0  0
110212  1  0  0  0  0
111213  1  0  0  0  0
111214  1  0  0  0  0
111215  1  0  0  0  0
118216  1  0  0  0  0
126217  1  0  0  0  0
133218  1  0  0  0  0
133219  1  0  0  0  0
134220  1  0  0  0  0
134221  1  0  0  0  0
135222  1  0  0  0  0
135223  1  0  0  0  0
136224  1  0  0  0  0
137225  1  0  0  0  0
139226  1  0  0  0  0
145227  1  0  0  0  0
145228  1  0  0  0  0
146229  1  0  0  0  0
146230  1  0  0  0  0
146231  1  0  0  0  0
157232  1  0  0  0  0
157233  1  0  0  0  0
158234  1  0  0  0  0
158235  1  0  0  0  0
158236  1  0  0  0  0
165237  1  0  0  0  0
166238  1  0  0  0  0
M  END
