230

C         10.98460      -16.23950        1.59660
C          9.64190      -16.28490        1.47530
C          9.10680      -15.13270        0.82970
C          7.76330      -14.82760        0.56370
C          6.67510      -15.70750        0.96170
S          6.49520      -16.23070        2.61100
C          5.03310      -17.08860        2.26490
C          4.26500      -17.77970        3.33690
C          3.23890      -16.83520        3.96790
C          4.71400      -16.96360        0.94610
Cl         3.32650      -17.67220        0.22780
C          5.64320      -16.18700        0.20320
Cl         5.50110      -15.96730       -1.49050
C          7.50570      -13.61550       -0.06490
C          8.52460      -12.70750       -0.44480
C          9.87020      -13.02210       -0.19540
C         10.94180      -12.10950       -0.55980
S         10.94360      -10.45690       -0.01590
C         12.45070      -10.11830       -0.79470
C         13.10230       -8.78510       -0.67440
C         13.97800       -8.71660        0.57920
C         12.91460      -11.23110       -1.43050
C         12.06190      -12.36030       -1.30290
Cl        12.38630      -13.84860       -2.08760
Cl        14.38280      -11.28290       -2.31690
C         10.12740      -14.23040        0.44340
S         11.69390      -14.81270        0.92860
C          7.99330      -11.54270       -1.05480
C          6.63240      -11.53520       -1.11380
S          5.92750      -12.98420       -0.42760
C          5.77060      -10.52760       -1.63590
C          4.40990      -10.57580       -1.70160
C          3.82630       -9.40780       -2.24540
C          2.46110       -9.14690       -2.46130
C          1.45310      -10.15370       -2.17310
S          1.61110      -11.76830       -2.80470
C          0.13280      -12.28910       -2.07400
C         -0.31030      -13.70690       -2.16990
C          0.41240      -14.57010       -1.13230
C         -0.43880      -11.26180       -1.38490
Cl        -1.91800      -11.39050       -0.52510
C          0.30250      -10.05030       -1.44010
Cl        -0.18030       -8.65560       -0.56880
C          2.13680       -7.89710       -2.97140
C          3.11060       -6.90820       -3.26130
C          4.47650       -7.17540       -3.05820
C          5.48000       -6.16910       -3.36350
S          5.51430       -5.38750       -4.91780
C          6.86150       -4.39470       -4.48040
C          7.38530       -3.35810       -5.41180
C          6.53300       -2.08800       -5.34220
C          7.25110       -4.66520       -3.20300
C          6.47560       -5.67280       -2.56790
Cl         6.72640       -6.12130       -0.93340
Cl         8.55130       -3.87320       -2.41130
C          4.80330       -8.42870       -2.55740
S          6.41150       -9.01820       -2.24600
C          2.51800       -5.69940       -3.69780
C          1.15790       -5.75700       -3.77280
S          0.53320       -7.33120       -3.33500
C          0.25990       -4.68060       -4.02120
C         -1.09670       -4.69330       -3.89050
C         -1.68790       -3.41300       -4.00250
C         -3.04750       -3.07390       -3.85970
C         -4.05470       -4.08740       -3.59910
S         -3.84330       -5.26190       -2.33180
C         -5.36020       -6.02330       -2.66970
C         -5.79180       -7.22710       -1.90770
C         -4.81930       -8.39020       -2.11010
C         -5.98600       -5.38870       -3.70070
Cl        -7.51270       -5.85310       -4.33330
C         -5.25480       -4.28700       -4.22370
Cl        -5.80700       -3.37810       -5.56720
C         -3.35930       -1.72270       -3.91150
C         -2.38820       -0.71470       -4.13780
C         -1.04670       -1.06290       -4.39870
C         -0.06690       -0.06970       -4.79210
S          1.56170       -0.08030       -4.17480
C          2.04610        1.23850       -5.18590
C          3.44570        1.74900       -5.19440
C          3.65710        2.88920       -4.19670
C          0.98930        1.67140       -5.93070
C         -0.20400        0.93110       -5.71950
Cl        -1.61690        1.21170       -6.65320
Cl         1.08120        2.96830       -7.05110
C         -0.72440       -2.40870       -4.27020
S          0.87740       -3.08240       -4.38140
C         -2.92050        0.57540       -3.94400
C         -4.25090        0.58850       -3.61030
S         -4.91910       -1.03090       -3.56330
C         -4.97360        1.74430       -3.21800
S         -4.05730        3.17530       -2.89610
C         -5.43620        4.04900       -2.30230
C         -6.58880        3.26750       -2.40620
C         -6.32590        1.95480       -2.92300
C         -7.39460        1.05440       -3.07370
C         -8.66190        1.43520       -2.70790
C         -9.73860        0.53210       -2.85550
N        -10.59920       -0.21450       -2.98000
C         -8.92500        2.74140       -2.17460
O        -10.21430        2.97300       -1.84710
C        -10.55710        4.22630       -1.30350
C         -7.89770        3.63810       -2.03950
C         -5.18290        5.30750       -1.69930
C         -3.92480        5.82590       -1.54800
C         -3.86500        6.98980       -0.75880
C         -2.71150        7.69240       -0.36110
C         -1.40220        7.18550       -0.73540
S         -1.01620        5.51190       -0.44740
C          0.51590        5.64130       -1.24030
C          1.35350        4.42690       -1.44330
C          0.60060        3.38240       -2.27130
C          0.72150        6.92190       -1.65690
Cl         2.13010        7.44540       -2.48570
C         -0.35810        7.80330       -1.36370
Cl        -0.36210        9.44670       -1.84790
C         -2.90790        8.80880        0.43650
C         -4.19550        9.24600        0.84220
C         -5.34910        8.55880        0.41360
C         -6.67700        9.02920        0.76360
S         -7.88400        7.95860        1.41380
C         -9.06530        9.21930        1.50890
C        -10.42040        8.97070        2.07310
C        -10.43210        9.18460        3.58870
C         -8.54020       10.39510        1.06200
C         -7.18980       10.29160        0.63280
Cl        -6.34460       11.61500       -0.06070
Cl        -9.41430       11.87030        1.00210
C         -5.14970        7.41830       -0.35050
S         -6.38530        6.32880       -0.92900
C         -4.11590       10.32930        1.74950
C         -2.83850       10.72560        2.01670
S         -1.65100        9.77580        1.14800
C         -2.41220       11.77120        2.88570
C         -1.13300       12.16720        3.13960
C         -1.04640       13.25180        4.04650
C          0.11060       13.87870        4.53820
C          1.42600       13.51720        4.04020
S          2.72490       13.10020        5.11800
C          3.82520       12.82660        3.81150
C          5.21220       12.34570        4.05870
C          5.24650       10.81950        4.17190
C          3.20740       13.04680        2.61640
Cl         3.98030       12.87700        1.09370
C          1.84890       13.44240        2.74110
Cl         0.88300       13.85840        1.38400
C         -0.06870       14.85490        5.51090
C         -1.34290       15.25070        5.98090
C         -2.50180       14.65290        5.45970
C         -3.82980       15.02890        5.91790
S         -4.24350       14.98650        7.60720
C         -5.87550       15.47510        7.30250
C         -6.86510       15.59590        8.40830
C         -7.50020       14.23980        8.72520
C         -6.07370       15.65070        5.96600
C         -4.91710       15.40200        5.17790
Cl        -4.89670       15.63780        3.48060
Cl        -7.56820       16.13490        5.27640
C         -2.32370       13.66130        4.50270
S         -3.58950       12.71660        3.77260
C         -1.24390       16.29760        6.94350
C          0.03040       16.66540        7.18720
S          1.19740       15.77810        6.27000
H         11.63010      -16.97140        2.04120
H          9.03860      -17.10120        1.82690
H          4.95350      -18.13580        4.10470
H          3.74940      -18.63810        2.90180
H          2.54080      -16.48080        3.21390
H          2.68180      -17.35420        4.74310
H          3.73790      -15.97670        4.41090
H         13.71860       -8.61550       -1.55940
H         12.33590       -8.00970       -0.62630
H         14.45340       -7.74200        0.64910
H         13.37520       -8.87650        1.47010
H         14.75100       -9.48000        0.54070
H          8.59320      -10.73700       -1.43770
H          3.84880      -11.42490       -1.35650
H         -1.38710      -13.75150       -2.00010
H         -0.09540      -14.08870       -3.16880
H          0.20680      -14.20670       -0.12860
H          0.07660      -15.60090       -1.20500
H          1.48680      -14.54170       -1.29820
H          8.41490       -3.12510       -5.13540
H          7.37460       -3.74600       -6.43180
H          6.54710       -1.68020       -4.33440
H          6.92260       -1.33990       -6.02750
H          5.50310       -2.30920       -5.61370
H          3.06710       -4.80140       -3.91420
H         -1.64290       -5.59530       -3.68560
H         -6.78970       -7.50970       -2.24650
H         -5.84480       -6.98490       -0.84320
H         -5.15940       -9.26170       -1.55750
H         -4.75370       -8.65060       -3.16370
H         -3.82650       -8.12020       -1.75710
H          4.12530        0.92870       -4.95720
H          3.66990        2.10830       -6.20090
H          3.50090        2.53790       -3.18010
H          2.96500        3.70170       -4.40010
H          4.67210        3.26820       -4.28040
H         -2.33250        1.47370       -3.99660
H         -7.22720        0.06910       -3.48010
H        -10.01070        4.42280       -0.37590
H        -10.36640        5.03550       -2.01490
H        -11.62350        4.17020       -1.09430
H         -8.06700        4.63060       -1.65820
H         -3.06390        5.35620       -1.98510
H          2.27510        4.71880       -1.94880
H          1.61300        3.99490       -0.47350
H          1.19690        2.48090       -2.37830
H          0.37770        3.77120       -3.26210
H         -0.33570        3.12060       -1.78320
H        -10.72430        7.94730        1.84710
H        -11.12600        9.65870        1.60350
H         -9.73760        8.50170        4.07200
H        -11.42900        9.00620        3.98230
H        -10.14040       10.20420        3.82690
H         -4.96910       10.78870        2.21460
H         -0.28070       11.68180        2.70030
H          5.84730       12.66510        3.23040
H          5.58980       12.78790        4.98200
H          4.88760       10.36570        3.25160
H          6.26260       10.48090        4.35470
H          4.61420       10.48870        4.99250
H         -7.64140       16.30150        8.10680
H         -6.36760       15.98090        9.30010
H         -8.22040       14.34460        9.53200
H         -8.01190       13.85000        7.84900
H         -6.73660       13.52710        9.02800
H         -2.09520       16.74860        7.41880
H          0.37890       17.42270        7.86170
