167

C          0.94610      -13.61460        8.90810
C          0.22050      -12.48670        9.04850
C          0.42810      -11.55960        7.98590
C         -0.11760      -10.27520        7.83370
C         -1.12270       -9.76510        8.75140
S         -0.94320       -8.22350        9.53370
C         -2.45950       -8.37560       10.35270
C         -2.93070       -7.33240       11.30470
C         -2.36390       -7.57250       12.70600
C         -3.05550       -9.55900       10.03250
Cl        -4.57630      -10.06210       10.64870
C         -2.30330      -10.34780        9.12160
Cl        -2.87770      -11.84070        8.49850
C          0.34620       -9.51520        6.76770
C          1.28660      -10.00140        5.82750
C          1.79380      -11.30680        5.94870
C          2.74470      -11.83790        4.98650
S          4.20130      -10.97370        4.58530
C          4.71810      -12.19600        3.47500
C          5.96000      -12.03000        2.67070
C          5.67790      -11.22640        1.39840
C          3.80390      -13.20500        3.42500
C          2.68820      -13.00970        4.28380
Cl         1.37290      -14.10610        4.33740
Cl         3.96440      -14.59090        2.42660
C          1.35910      -12.05160        7.03940
S          1.92590      -13.63590        7.48410
C          1.57330       -9.04260        4.82590
C          0.90180       -7.86600        4.98810
S         -0.15220       -7.89250        6.38440
C          1.02370       -6.69220        4.18440
C          1.89850       -6.49170        3.15580
C          1.82320       -5.19560        2.59370
C          2.57060       -4.66970        1.52390
C          3.58000       -5.46380        0.84260
S          4.85870       -6.25110        1.72240
C          5.56920       -6.88880        0.27970
C          6.82960       -7.68100        0.31770
C          8.04430       -6.78560        0.06240
C          4.84990       -6.50200       -0.81110
Cl         5.24540       -6.94950       -2.41900
C          3.72220       -5.69610       -0.49750
Cl         2.62060       -5.15330       -1.69220
C          2.32190       -3.35080        1.16990
C          1.34430       -2.54960        1.81510
C          0.54990       -3.09920        2.83700
C         -0.53060       -2.34530        3.44850
S         -0.69610       -2.22770        5.17500
C         -2.15680       -1.30870        5.05000
C         -2.91300       -0.90020        6.26560
C         -3.75400       -2.06350        6.79670
C         -2.48620       -1.11900        3.74160
C         -1.56220       -1.69420        2.82870
Cl        -1.78550       -1.63820        1.12900
Cl        -3.89530       -0.28830        3.22570
C          0.83390       -4.40270        3.22390
S          0.03200       -5.28420        4.49250
C          1.36110       -1.21480        1.34590
C          2.29670       -1.00030        0.37550
S          3.20270       -2.43910       -0.02330
C          2.58700        0.22610       -0.28430
O          3.48500        0.26570       -1.29890
C          3.54340        1.53000       -1.77300
C          2.71780        2.33770       -1.00770
C          2.08640        1.49780       -0.06240
O          1.18130        1.84720        0.87420
S          2.47370        4.08030       -1.05700
C          4.44240        1.81530       -2.86540
C          4.18110        2.60000       -3.92840
C          2.90580        3.16450       -4.27540
C          2.66720        4.24300       -5.07910
C          1.29360        4.57940       -5.18920
C          0.69490        5.67570       -5.83630
C          1.48170        6.63770       -6.59140
S          2.83820        7.46020       -5.87630
C          3.14630        8.37450       -7.31320
C          4.23190        9.39190       -7.36600
C          3.73600       10.74630       -6.85370
C          2.23950        8.05430       -8.27800
Cl         2.22610        8.75280       -9.84470
C          1.29700        7.06960       -7.87490
Cl         0.10940        6.44490       -8.94000
C         -0.67750        5.83070       -5.68240
C         -1.47790        4.95190       -4.90560
C         -0.88780        3.83530       -4.29630
C         -1.59610        2.94140       -3.39470
S         -2.35920        3.55590       -1.95780
C         -2.66490        1.96400       -1.34390
C         -3.26170        1.76980        0.00510
C         -2.26680        2.16950        1.09680
C         -2.21390        1.02520       -2.22200
C         -1.60760        1.57510       -3.38410
Cl        -1.01340        0.59810       -4.66130
Cl        -2.32950       -0.66770       -1.96980
C          0.47950        3.67110       -4.47300
S          1.41830        2.43070       -3.71250
C         -2.82680        5.37120       -4.84030
C         -3.05660        6.53230       -5.52100
S         -1.61990        7.16180       -6.29300
C         -4.28530        7.23440       -5.64760
O         -4.34250        8.38250       -6.36650
C         -5.61060        8.85390       -6.33900
C         -6.38470        8.00270       -5.55840
C         -5.53910        6.95890       -5.12270
O         -5.86650        5.91060       -4.34510
S         -8.08910        8.09400       -5.11340
C         -5.86920       10.05990       -7.04440
C         -7.07770       10.62300       -7.26920
C         -7.25070       11.83930       -7.98320
O         -6.19830       12.53200       -8.48880
C         -6.66120       13.64530       -9.10140
C         -8.04440       13.66410       -9.01720
C         -8.42460       12.51240       -8.29190
O         -9.66920       12.12250       -7.95630
S         -9.21090       14.81780       -9.66650
C         -5.68760       14.51500       -9.69910
C         -5.89230       15.75220      -10.14920
H          0.97620      -14.46400        9.56210
H         -0.42990      -12.29680        9.88200
H         -2.61590       -6.35030       10.94840
H         -4.02130       -7.35970       11.34260
H         -1.27710       -7.54720       12.68210
H         -2.71670       -6.80390       13.38820
H         -2.68160       -8.54260       13.07970
H          6.33980      -13.01740        2.40280
H          6.71320      -11.51370        3.26810
H          5.28830      -10.24280        1.65080
H          6.59190      -11.10480        0.82360
H          4.94550      -11.74190        0.78270
H          2.25260       -9.22060        4.01440
H          2.58580       -7.24330        2.81680
H          6.78180       -8.45530       -0.45090
H          6.92710       -8.15790        1.29390
H          7.96400       -6.31210       -0.91230
H          8.10760       -6.00990        0.82180
H          8.95590       -7.37650        0.08940
H         -2.21210       -0.57830        7.03780
H         -3.56310       -0.06150        6.01030
H         -4.46850       -2.38630        6.04370
H         -4.29920       -1.75600        7.68500
H         -3.11380       -2.90490        7.05070
H          0.73170       -0.43160        1.72320
H          1.01480        2.79750        0.81160
H          3.41340        4.32050       -1.96320
H          5.40000        1.31600       -2.80150
H          4.98180        2.81230       -4.62460
H          3.45600        4.80800       -5.54240
H          5.07260        9.05780       -6.75570
H          4.56660        9.49320       -8.40020
H          4.53700       11.47910       -6.90000
H          3.39970       10.65960       -5.82320
H          2.90620       11.09700       -7.46190
H         -3.53320        0.71970        0.12020
H         -4.16540        2.37600        0.09890
H         -1.36480        1.56700        1.02390
H         -2.70830        2.01670        2.07720
H         -1.99860        3.21880        0.99350
H         -3.59890        4.84460       -4.31210
H         -6.79720        5.99250       -4.09110
H         -8.10330        9.39990       -4.85680
H         -4.98600       10.53650       -7.44630
H         -8.00000       10.16910       -6.94340
H        -10.30590       12.74260       -8.33820
H         -8.58080       15.01460      -10.82180
H         -4.69820       14.07890       -9.74000
H         -6.84300       16.25020      -10.08080
H         -5.08640       16.32110      -10.57750
