234

C         -8.88610       -6.57760       15.03980
C         -8.97560       -5.32190       14.55680
C         -8.54420       -5.21850       13.20140
C         -8.52410       -4.08240       12.38290
C         -8.86550       -2.73100       12.84610
C         -8.22710       -2.15650       13.94310
C         -8.42720       -0.82700       14.25040
C         -9.28340       -0.02830       13.49470
S         -9.41750        1.68100       13.92810
C         -9.47050        2.53250       12.30450
C         -8.28120        2.19020       11.43000
C         -9.98230       -0.64080       12.45890
F        -10.89290        0.04630       11.73600
C         -9.76660       -1.96000       12.11900
C         -8.09500       -4.26450       11.07680
C         -7.67740       -5.51330       10.55970
C         -7.69900       -6.65340       11.37930
C         -7.24740       -7.94570       10.85070
C         -6.27750       -8.69880       11.50910
C         -5.77920       -9.85100       10.93850
C         -6.23900      -10.30720        9.70530
S         -5.50770      -11.77030        9.03240
C         -5.26250      -11.33680        7.26720
C         -4.43280      -10.08080        7.09650
C         -7.26390       -9.58720        9.09770
C         -7.75140       -8.41740        9.64190
F         -7.81370      -10.01060        7.93900
C         -8.12880       -6.47200       12.68650
S         -8.27570       -7.72260       13.89430
C         -7.20000       -5.39760        9.22750
C         -7.24710       -4.12720        8.74110
S         -7.90590       -2.99000        9.90140
C         -6.80870       -3.64890        7.47230
C         -6.71090       -2.34790        7.08230
C         -6.18560       -2.18310        5.77730
C         -5.93290       -0.97560        5.10490
C         -6.28640        0.30200        5.73550
C         -7.56080        0.50190        6.26830
C         -7.86550        1.66010        6.94730
C         -6.92020        2.67230        7.11770
S         -7.43430        4.09240        8.03030
C         -5.88840        4.73060        8.79210
C         -6.25080        5.58630        9.99010
C         -5.67450        2.48670        6.52580
F         -4.72130        3.44320        6.59500
C         -5.35110        1.32280        5.85650
C         -5.31780       -1.07550        3.86730
C         -4.99890       -2.31840        3.26290
C         -5.29440       -3.52850        3.91670
C         -5.01370       -4.82240        3.28520
C         -5.40240       -5.07070        1.97010
C         -5.13040       -6.27830        1.35900
C         -4.45450       -7.28600        2.03930
S         -4.04330       -8.85770        1.35750
C         -3.96660       -8.53320       -0.43960
C         -2.86330       -7.55780       -0.79830
C         -4.10320       -7.03740        3.36650
C         -4.36510       -5.83670        3.98700
F         -3.47110       -7.99920        4.06970
C         -5.85830       -3.42520        5.17930
S         -6.26590       -4.75860        6.23070
C         -4.32830       -2.14420        2.02750
C         -4.15860       -0.83680        1.67380
S         -4.83860        0.26120        2.85530
C         -3.45370       -0.34170        0.53470
C         -2.89830       -1.07730       -0.47230
C         -2.16040       -0.30300       -1.40080
C         -1.41090       -0.75430       -2.50040
C         -1.32150       -2.17830       -2.84730
C         -0.97360       -3.14020       -1.90030
C         -0.87440       -4.46970       -2.25330
C         -1.12710       -4.89230       -3.55590
S         -1.00590       -6.62420       -3.90690
C         -0.09200       -6.67070       -5.49210
C          1.24710       -5.96860       -5.39460
C         -1.49780       -3.92550       -4.48510
F         -1.80170       -4.27140       -5.75420
C         -1.57860       -2.58930       -4.15140
C         -0.73620        0.21070       -3.23120
C         -0.78780        1.59290       -2.92140
C         -1.54730        2.04740       -1.82970
C         -1.60480        3.47360       -1.48630
C         -2.82680        4.11230       -1.28210
C         -2.87780        5.46470       -1.02310
C         -1.71910        6.23620       -0.94550
S         -1.91930        7.95830       -0.60150
C         -0.63810        8.77320       -1.62640
C         -0.75690        8.41580       -3.09350
C         -0.50440        5.57510       -1.09860
C         -0.43820        4.22460       -1.37340
F          0.67110        6.24030       -0.98850
C         -2.21530        1.08070       -1.09450
S         -3.14250        1.37150        0.35300
C          0.02320        2.35650       -3.79430
C          0.72580        1.60590       -4.69250
S          0.35120       -0.09910       -4.56080
C          1.74860        2.08080       -5.56750
C          2.21240        3.36280       -5.63910
C          3.35570        3.51060       -6.45870
C          4.09020        4.68470       -6.69860
C          3.74320        5.94120       -6.02330
C          3.57530        5.97160       -4.64060
C          3.24130        7.13960       -3.98490
C          3.07390        8.32520       -4.69090
S          2.62130        9.86900       -3.96460
C          3.16820        9.70200       -2.22960
C          4.67770        9.62010       -2.11460
C          3.24700        8.28250       -6.07470
F          3.07810        9.41070       -6.79110
C          3.58000        7.12300       -6.74070
C          5.18010        4.57180       -7.54440
C          5.57470        3.34520       -8.13820
C          4.82760        2.17510       -7.91250
C          5.19580        0.90540       -8.54890
C          5.43710        0.84160       -9.92170
C          5.76760       -0.35280      -10.52280
C          5.88290       -1.53030       -9.78390
S          6.35810       -2.98800      -10.65900
C          5.50560       -4.34310       -9.75620
C          5.33180       -5.52070      -10.69480
C          5.65980       -1.44800       -8.41300
C          5.30770       -0.26180       -7.80150
F          5.79750       -2.53600       -7.62070
C          3.74110        2.28630       -7.05810
S          2.67790        0.98890       -6.57330
C          6.79390        3.47240       -8.84670
C          7.32020        4.73300       -8.81860
S          6.30010        5.85100       -7.92990
C          8.55690        5.17150       -9.36590
S          8.89950        6.87490       -9.57680
C         10.49430        6.55640      -10.16970
C         10.74900        5.23030      -10.20000
C          9.65480        4.42610       -9.75220
C         10.06640        3.06380       -9.78710
C         11.36000        2.97210      -10.22660
C         11.89960        4.34610      -10.54390
C         12.03280        1.72130      -10.30450
C         13.30500        1.34030      -10.59190
C         14.50160        1.99630      -10.98330
S         14.71940        3.66060      -11.49840
C         16.41610        3.45250      -11.77320
C         16.80350        2.19030      -11.48920
C         15.73080        1.35870      -11.05110
C         16.25830        0.05770      -10.77850
C         17.59500        0.04280      -11.02310
C         18.06880        1.39810      -11.50080
C         18.46150       -1.09000      -10.85640
C         19.77340       -1.09380      -11.09170
H         -9.14460       -6.92630       16.02060
H         -9.34600       -4.48550       15.12140
H         -7.53140       -2.74340       14.52340
H         -7.90140       -0.37210       15.07550
H         -9.46460        3.58680       12.58110
H        -10.41390        2.30130       11.81520
H         -8.28810        1.13700       11.15430
H         -7.34920        2.40280       11.95070
H         -8.32040        2.78160       10.51670
H        -10.31980       -2.37950       11.29320
H         -5.88190       -8.35470       12.45210
H         -5.00430      -10.41460       11.43410
H         -6.23450      -11.25310        6.78620
H         -4.74320      -12.20800        6.86850
H         -3.48080      -10.17800        7.61420
H         -4.95450       -9.21180        7.49420
H         -4.23830       -9.90820        6.04010
H         -8.54250       -7.89400        9.12710
H         -6.80280       -6.21840        8.65790
H         -6.97780       -1.53010        7.72730
H         -8.31620       -0.25870        6.14400
H         -8.84710        1.80210        7.37210
H         -5.29480        3.86730        9.08930
H         -5.35060        5.31050        8.04390
H         -6.78830        5.00090       10.73240
H         -6.87960        6.42030        9.68680
H         -5.34440        5.98070       10.44420
H         -4.35700        1.22320        5.44970
H         -5.94950       -4.31570        1.42570
H         -5.45930       -6.43710        0.34450
H         -4.94560       -8.19960       -0.78120
H         -3.76840       -9.51710       -0.86410
H         -1.90490       -7.93000       -0.44460
H         -3.04260       -6.58260       -0.34940
H         -2.80780       -7.43760       -1.87820
H         -4.03570       -5.69320        5.00360
H         -3.95030       -2.96350        1.44480
H         -3.00920       -2.14260       -0.55280
H         -0.74350       -2.83660       -0.89040
H         -0.59060       -5.21050       -1.52200
H          0.03370       -7.73770       -5.67570
H         -0.71970       -6.24760       -6.27330
H          1.11640       -4.90360       -5.21040
H          1.84160       -6.38890       -4.58600
H          1.79220       -6.09010       -6.32850
H         -1.87310       -1.88230       -4.91110
H         -3.74420        3.55000       -1.36130
H         -3.82720        5.95790       -0.88530
H         -0.83050        9.83390       -1.46560
H          0.34060        8.52780       -1.22100
H         -0.54400        7.36100       -3.25830
H         -0.04670        9.00400       -3.67100
H         -1.76060        8.62590       -3.45660
H          0.53230        3.76110       -1.46420
H          0.08950        3.42700       -3.74980
H          1.75660        4.18410       -5.11850
H          3.72780        5.07010       -4.06640
H          3.10380        7.11640       -2.91590
H          2.67310        8.84090       -1.78320
H          2.78750       10.60670       -1.75580
H          4.96610        9.56930       -1.06650
H          5.05890        8.73660       -2.62300
H          5.13750       10.49870       -2.56090
H          3.69570        7.14680       -7.81260
H          5.33340        1.73210      -10.52270
H          5.94210       -0.39950      -11.58650
H          4.54290       -3.95410       -9.42790
H          6.10930       -4.61460       -8.89150
H          4.73620       -5.23640      -11.55930
H          4.82940       -6.33360      -10.17460
H          6.29870       -5.87560      -11.04430
H          5.15740       -0.25880       -6.73340
H          7.26950        2.65220       -9.34950
H         11.12010        7.38140      -10.44610
H          9.46240        2.22710       -9.48600
H         12.17970        4.43200      -11.59490
H         12.78000        4.57940       -9.94360
H         11.37880        0.89920      -10.03170
H         13.48390        0.27470      -10.48700
H         16.98770        4.28980      -12.12160
H         15.68080       -0.77970      -10.42890
H         18.82070        1.81900      -10.83000
H         18.50690        1.33930      -12.49930
H         17.97710       -1.99470      -10.51030
H         20.29630       -0.21800      -11.43650
H         20.36880       -1.97820      -10.94680
