242

C         -8.61410       -6.49810       12.31250
C         -9.36960       -5.38130       12.32740
C         -9.18650       -4.57060       11.16800
C         -9.82790       -3.36510       10.84020
C        -10.74890       -2.70100       11.77050
C        -12.01040       -2.27390       11.35950
C        -12.85060       -1.62230       12.23550
C        -12.47430       -1.37060       13.55490
S        -13.65550       -0.55600       14.58280
C        -12.63400        0.38580       15.78610
C        -13.46240        1.52820       16.34020
C        -11.22140       -1.82300       13.95730
F        -10.79300       -1.65300       15.23020
C        -10.36480       -2.46520       13.08620
C         -9.52410       -2.81670        9.60460
C         -8.59510       -3.39520        8.70540
C         -7.94090       -4.59270        9.03950
C         -6.97060       -5.20500        8.12530
C         -7.28730       -5.42880        6.78850
C         -6.37110       -5.98520        5.91640
C         -5.09710       -6.33240        6.35070
S         -3.81360       -7.01980        5.36090
C         -4.51870       -7.13190        3.68310
C         -5.39900       -8.35450        3.50590
C         -4.79580       -6.10680        7.69600
C         -5.70120       -5.56290        8.57680
F         -3.56120       -6.41750        8.14510
C         -8.25640       -5.14870       10.27100
S         -7.62750       -6.65080       10.89920
C         -8.40760       -2.59490        7.55550
C         -9.15560       -1.44770        7.53740
S        -10.14790       -1.31010        8.98020
C         -9.13790       -0.47790        6.50240
S         -8.19120       -0.82440        5.08820
C         -8.57080        0.69660        4.34240
C         -9.37690        1.46660        5.18960
C         -9.72430        0.78730        6.39850
C        -10.55330        1.44530        7.33240
C        -10.98450        2.72000        7.11290
C        -11.87000        3.43280        8.08260
C        -10.56150        3.42000        5.93900
O        -11.00630        4.70240        5.85210
C        -10.64460        5.46320        4.72600
C         -9.76850        2.80830        5.00500
C         -7.99970        0.99910        3.08290
S         -6.44240        0.33670        2.69730
C         -6.35690        1.17750        1.17830
C         -7.52260        1.91970        0.96390
C         -8.47020        1.78620        2.02520
C         -9.75510        2.34900        1.86720
C        -10.06180        3.09680        0.76890
C        -11.41410        3.70480        0.57620
C         -9.07510        3.30180       -0.24730
O         -9.47980        4.08560       -1.27940
C         -8.58070        4.32320       -2.33650
C         -7.84490        2.70490       -0.16080
C         -5.18680        1.01840        0.39560
C         -4.22720        0.05690        0.57310
C         -3.12820        0.16370       -0.30800
C         -1.98840       -0.65620       -0.37800
C         -1.80780       -1.79270        0.53350
C         -1.91910       -1.63580        1.91180
C         -1.75420       -2.70590        2.77030
C         -1.47230       -3.97600        2.27980
S         -1.26620       -5.43070        3.25120
C         -1.09220       -4.82110        4.96080
C          0.23910       -4.13330        5.19170
C         -1.36870       -4.11840        0.89430
F         -1.11790       -5.34000        0.38050
C         -1.52350       -3.06020        0.02870
C         -1.04760       -0.33010       -1.34170
C         -1.17430        0.78270       -2.21100
C         -2.32020        1.59500       -2.14920
C         -2.48840        2.77270       -3.00920
C         -1.49320        3.74410       -3.10580
C         -1.67400        4.85720       -3.89820
C         -2.85330        5.05730       -4.61370
S         -2.98830        6.55320       -5.54860
C         -3.84590        6.04660       -7.08510
C         -3.09780        4.95270       -7.81970
C         -3.84900        4.09480       -4.48400
C         -3.67240        2.96370       -3.71370
F         -5.03950        4.23570       -5.11140
C         -3.27370        1.24970       -1.20670
S         -4.76500        2.10790       -0.91590
C         -0.05420        0.91250       -3.06790
C          0.90710       -0.03190       -2.85870
S          0.46180       -1.16740       -1.59860
C          2.17200       -0.14290       -3.50510
C          3.10990       -1.11940       -3.34850
C          4.29240       -0.90020       -4.09940
C          5.44460       -1.70430       -4.15080
C          5.50620       -3.01420       -3.49300
C          4.48540       -3.94890       -3.66610
C          4.58170       -5.20590       -3.10920
C          5.69050       -5.58120       -2.35330
S          5.70790       -7.21540       -1.67640
C          7.42990       -7.77320       -1.95800
C          7.81510       -7.70690       -3.42220
C          6.68200       -4.62570       -2.15510
F          7.76580       -4.90000       -1.39430
C          6.60710       -3.36930       -2.71990
C          6.51410       -1.20830       -4.88270
C          6.45340        0.00930       -5.60210
C          5.28240        0.78480       -5.59980
C          5.23310        2.02810       -6.37990
C          4.88760        3.24220       -5.79490
C          4.94430        4.41980       -6.51570
C          5.34820        4.42320       -7.84580
S          5.48930        5.86870       -8.84900
C          5.88290        7.18160       -7.64030
C          7.20490        6.93650       -6.93980
C          5.64030        3.19300       -8.43450
C          5.59270        2.01330       -7.72680
F          6.00120        3.15300       -9.73250
C          4.23660        0.31980       -4.82170
S          2.70010        1.11620       -4.60750
C          7.68280        0.31390       -6.23370
C          8.64650       -0.62890       -6.04220
S          8.07740       -1.96890       -5.06800
C          9.99130       -0.56100       -6.50860
C         11.01910       -1.42940       -6.30060
C         12.24520       -1.00410       -6.87810
C         13.48700       -1.66000       -6.87210
C         13.67170       -2.90550       -6.11950
C         13.26170       -2.99000       -4.79100
C         13.40390       -4.15850       -4.06990
C         13.95280       -5.29350       -4.65610
S         14.17960       -6.84510       -3.85330
C         13.10900       -6.74060       -2.37650
C         11.63420       -6.75230       -2.73080
C         14.38340       -5.18700       -5.98010
F         14.93380       -6.26300       -6.57630
C         14.25540       -4.02510       -6.70770
C         14.51290       -1.05580       -7.58710
C         14.36370        0.17400       -8.27550
C         13.13190        0.83990       -8.26090
C         12.87660        2.10510       -8.96240
C         13.12370        2.24840      -10.32580
C         12.73140        3.39120      -10.99110
C         12.09720        4.43760      -10.32460
S         11.58240        5.83670      -11.27540
C          9.93190        6.23850      -10.58300
C          8.99630        5.04720      -10.58480
C         11.92910        4.31180       -8.94920
C         12.29090        3.16420       -8.27580
F         11.38960        5.31580       -8.22220
C         12.10450        0.22840       -7.55860
S         10.47620        0.83780       -7.44810
C         15.58720        0.59540       -8.87500
C         16.60040       -0.26710       -8.65800
S         16.15020       -1.64620       -7.71490
H         -8.56420       -7.26950       13.05600
H        -10.05530       -5.13670       13.11800
H        -12.33650       -2.46320       10.34860
H        -13.82580       -1.29200       11.91310
H        -11.76220        0.75600       15.24880
H        -12.32040       -0.29210       16.57830
H        -12.87020        2.09760       17.05330
H        -13.78220        2.19210       15.54020
H        -14.34650        1.14750       16.84630
H         -9.39300       -2.76780       13.44480
H         -8.27510       -5.18420        6.42790
H         -6.66150       -6.14190        4.89050
H         -5.04200       -6.20080        3.46990
H         -3.63950       -7.19020        3.04100
H         -6.24390       -8.33790        4.19130
H         -5.77740       -8.39140        2.48610
H         -4.82470       -9.25810        3.69530
H         -5.40550       -5.39870        9.60080
H         -7.71390       -2.84010        6.77120
H        -10.84670        0.93350        8.23480
H        -12.79220        3.73760        7.59040
H        -12.10790        2.79490        8.92910
H        -11.38070        4.33790        8.43900
H        -11.00290        5.00520        3.79840
H        -11.12260        6.43230        4.85940
H         -9.56030        5.59980        4.66390
H         -9.40860        3.33580        4.13850
H        -10.51030        2.15090        2.61220
H        -11.85060        3.35570       -0.35800
H        -11.32980        4.78850        0.50630
H        -12.07650        3.44670        1.39840
H         -8.31340        3.39590       -2.85220
H         -9.10510        4.98110       -3.02730
H         -7.66890        4.81630       -1.98600
H         -7.11780        2.81100       -0.94670
H         -4.32420       -0.71970        1.31050
H         -2.11790       -0.65710        2.32220
H         -1.85460       -2.54070        3.83070
H         -1.17430       -5.72600        5.56230
H         -1.94280       -4.18100        5.19050
H          0.34690       -3.25690        4.55530
H          0.31520       -3.82120        6.23140
H          1.05640       -4.81670        4.97350
H         -1.44180       -3.23360       -1.03270
H         -0.58030        3.63140       -2.54140
H         -0.90030        5.60540       -3.97350
H         -4.86490        5.75320       -6.84260
H         -3.87090        6.96660       -7.66930
H         -3.07610        4.03570       -7.23360
H         -3.59270        4.74320       -8.76580
H         -2.07320        5.25840       -8.02080
H         -4.46880        2.23720       -3.67290
H          0.03860        1.67440       -3.82140
H          2.96620       -1.95890       -2.69180
H          3.63030       -3.69880       -4.27520
H          3.79740       -5.93130       -3.25930
H          7.41920       -8.80260       -1.60030
H          8.09960       -7.18750       -1.33220
H          7.10150       -8.26010       -4.02910
H          7.84080       -6.67640       -3.77190
H          8.80270       -8.14110       -3.56190
H          7.40210       -2.66740       -2.52350
H          4.59590        3.27090       -4.75630
H          4.67580        5.34450       -6.03030
H          5.05410        7.27730       -6.94010
H          5.92560        8.08230       -8.25260
H          7.43500        7.77270       -6.28280
H          7.16700        6.02700       -6.34350
H          8.00650        6.83570       -7.66780
H          5.83230        1.08870       -8.22850
H          7.86150        1.21690       -6.78940
H         10.89700       -2.35330       -5.76400
H         12.84620       -2.11940       -4.30620
H         13.08670       -4.17460       -3.03990
H         13.37750       -7.63050       -1.80720
H         13.39270       -5.86270       -1.79800
H         11.37030       -5.89340       -3.34400
H         11.39260       -7.65620       -3.28520
H         11.03410       -6.72650       -1.82340
H         14.58660       -4.00990       -7.73380
H         13.58050        1.43810      -10.87350
H         12.89090        3.48630      -12.05390
H         10.06480        6.65620       -9.58680
H          9.57190        7.02130      -11.25060
H          7.99950        5.36010      -10.28130
H          8.93050        4.61290      -11.57980
H          9.33830        4.27690       -9.89580
H         12.12550        3.11480       -7.21080
H         15.68650        1.51240       -9.42710
H         17.61540       -0.18990       -8.99600
