
  xtb     03042206133D
 energy: -361.524957818918 gnorm: 0.000166251255 xtb: 6.4.1 (unknown)
212232  0     0  0            999 V2000
   -9.3980  -12.8212   -1.7183 C   0  0  0  0  0  0  0  0  0  0  0  0
   -9.1453  -11.5163   -1.9419 C   0  0  0  0  0  0  0  0  0  0  0  0
   -8.2475  -10.9526   -0.9871 C   0  0  0  0  0  0  0  0  0  0  0  0
   -7.8025   -9.6262   -0.8946 C   0  0  0  0  0  0  0  0  0  0  0  0
   -8.1173   -8.6035   -1.8991 C   0  0  0  0  0  0  0  0  0  0  0  0
   -8.5751   -7.3455   -1.5168 C   0  0  0  0  0  0  0  0  0  0  0  0
   -8.7572   -6.3403   -2.4448 C   0  0  0  0  0  0  0  0  0  0  0  0
   -8.4730   -6.5519   -3.7893 C   0  0  0  0  0  0  0  0  0  0  0  0
   -8.6048   -5.3165   -5.0399 S   0  0  0  0  0  0  0  0  0  0  0  0
   -8.3742   -3.7580   -4.1109 C   0  0  0  0  0  0  0  0  0  0  0  0
   -7.0088   -3.6686   -3.4602 C   0  0  0  0  0  0  0  0  0  0  0  0
   -8.0637   -7.8314   -4.1659 C   0  0  0  0  0  0  0  0  0  0  0  0
   -7.8070   -8.0867   -5.4653 F   0  0  0  0  0  0  0  0  0  0  0  0
   -7.8849   -8.8458   -3.2512 C   0  0  0  0  0  0  0  0  0  0  0  0
   -6.9829   -9.3199    0.1811 C   0  0  0  0  0  0  0  0  0  0  0  0
   -6.5600  -10.2744    1.1371 C   0  0  0  0  0  0  0  0  0  0  0  0
   -7.0051  -11.6043    1.0440 C   0  0  0  0  0  0  0  0  0  0  0  0
   -6.6044  -12.6042    2.0390 C   0  0  0  0  0  0  0  0  0  0  0  0
   -6.1131  -13.8491    1.6591 C   0  0  0  0  0  0  0  0  0  0  0  0
   -5.7156  -14.7807    2.5989 C   0  0  0  0  0  0  0  0  0  0  0  0
   -5.7881  -14.4987    3.9581 C   0  0  0  0  0  0  0  0  0  0  0  0
   -5.3251  -15.5869    5.2635 S   0  0  0  0  0  0  0  0  0  0  0  0
   -4.4323  -16.9423    4.4282 C   0  0  0  0  0  0  0  0  0  0  0  0
   -3.0631  -16.5147    3.9340 C   0  0  0  0  0  0  0  0  0  0  0  0
   -6.2977  -13.2517    4.3256 C   0  0  0  0  0  0  0  0  0  0  0  0
   -6.7033  -12.3181    3.4006 C   0  0  0  0  0  0  0  0  0  0  0  0
   -6.3936  -12.9419    5.6365 F   0  0  0  0  0  0  0  0  0  0  0  0
   -7.8401  -11.9068   -0.0237 C   0  0  0  0  0  0  0  0  0  0  0  0
   -8.5678  -13.4619   -0.3406 S   0  0  0  0  0  0  0  0  0  0  0  0
   -5.6447   -9.7234    2.0704 C   0  0  0  0  0  0  0  0  0  0  0  0
   -5.3922   -8.3949    1.8776 C   0  0  0  0  0  0  0  0  0  0  0  0
   -6.2734   -7.7600    0.4937 S   0  0  0  0  0  0  0  0  0  0  0  0
   -4.5312   -7.5099    2.5829 C   0  0  0  0  0  0  0  0  0  0  0  0
   -4.0406   -6.0518    1.7933 S   0  0  0  0  0  0  0  0  0  0  0  0
   -3.0340   -5.5602    3.1186 C   0  0  0  0  0  0  0  0  0  0  0  0
   -3.0987   -6.4982    4.1553 C   0  0  0  0  0  0  0  0  0  0  0  0
   -3.9600   -7.6011    3.8553 C   0  0  0  0  0  0  0  0  0  0  0  0
   -4.1645   -8.5923    4.8397 C   0  0  0  0  0  0  0  0  0  0  0  0
   -3.5214   -8.5352    6.0403 C   0  0  0  0  0  0  0  0  0  0  0  0
   -3.7231   -9.5715    7.0971 C   0  0  0  0  0  0  0  0  0  0  0  0
   -2.6271   -7.4510    6.3139 C   0  0  0  0  0  0  0  0  0  0  0  0
   -2.0305   -7.5034    7.5310 O   0  0  0  0  0  0  0  0  0  0  0  0
   -1.1338   -6.4786    7.8880 C   0  0  0  0  0  0  0  0  0  0  0  0
   -2.4344   -6.4516    5.3966 C   0  0  0  0  0  0  0  0  0  0  0  0
   -2.2986   -4.3565    2.9752 C   0  0  0  0  0  0  0  0  0  0  0  0
   -2.3542   -3.5161    1.8940 C   0  0  0  0  0  0  0  0  0  0  0  0
   -1.4815   -2.4093    1.9730 C   0  0  0  0  0  0  0  0  0  0  0  0
   -1.2966   -1.3860    1.0280 C   0  0  0  0  0  0  0  0  0  0  0  0
   -2.1098   -1.2950   -0.1910 C   0  0  0  0  0  0  0  0  0  0  0  0
   -1.5143   -1.1432   -1.4396 C   0  0  0  0  0  0  0  0  0  0  0  0
   -2.2737   -1.0146   -2.5866 C   0  0  0  0  0  0  0  0  0  0  0  0
   -3.6620   -1.0363   -2.5241 C   0  0  0  0  0  0  0  0  0  0  0  0
   -4.7402   -0.8410   -3.9032 S   0  0  0  0  0  0  0  0  0  0  0  0
   -3.6399   -1.1093   -5.3440 C   0  0  0  0  0  0  0  0  0  0  0  0
   -4.4978   -1.2542   -6.5867 C   0  0  0  0  0  0  0  0  0  0  0  0
   -4.2465   -1.1955   -1.2666 C   0  0  0  0  0  0  0  0  0  0  0  0
   -5.5933   -1.2194   -1.1727 F   0  0  0  0  0  0  0  0  0  0  0  0
   -3.5016   -1.3261   -0.1171 C   0  0  0  0  0  0  0  0  0  0  0  0
   -0.3086   -0.4575    1.3104 C   0  0  0  0  0  0  0  0  0  0  0  0
    0.4669   -0.4692    2.4965 C   0  0  0  0  0  0  0  0  0  0  0  0
    0.2465   -1.4659    3.4643 C   0  0  0  0  0  0  0  0  0  0  0  0
    0.9739   -1.4771    4.7383 C   0  0  0  0  0  0  0  0  0  0  0  0
    1.0669   -0.3259    5.5158 C   0  0  0  0  0  0  0  0  0  0  0  0
    1.7192   -0.3332    6.7336 C   0  0  0  0  0  0  0  0  0  0  0  0
    2.2982   -1.4979    7.2247 C   0  0  0  0  0  0  0  0  0  0  0  0
    3.1698   -1.6530    8.7474 S   0  0  0  0  0  0  0  0  0  0  0  0
    2.7992   -0.1048    9.6412 C   0  0  0  0  0  0  0  0  0  0  0  0
    1.3696   -0.0596   10.1468 C   0  0  0  0  0  0  0  0  0  0  0  0
    2.2031   -2.6428    6.4312 C   0  0  0  0  0  0  0  0  0  0  0  0
    1.5612   -2.6479    5.2145 C   0  0  0  0  0  0  0  0  0  0  0  0
    2.7596   -3.7911    6.8700 F   0  0  0  0  0  0  0  0  0  0  0  0
   -0.7076   -2.4242    3.1600 C   0  0  0  0  0  0  0  0  0  0  0  0
   -1.1447   -3.7816    4.1669 S   0  0  0  0  0  0  0  0  0  0  0  0
    1.4343    0.5693    2.5062 C   0  0  0  0  0  0  0  0  0  0  0  0
    1.3890    1.3672    1.4027 C   0  0  0  0  0  0  0  0  0  0  0  0
    0.1279    0.8787    0.2816 S   0  0  0  0  0  0  0  0  0  0  0  0
    2.2289    2.4523    1.0226 C   0  0  0  0  0  0  0  0  0  0  0  0
    2.1141    3.1727   -0.1288 C   0  0  0  0  0  0  0  0  0  0  0  0
    3.1353    4.1332   -0.3101 C   0  0  0  0  0  0  0  0  0  0  0  0
    3.2980    5.0137   -1.3948 C   0  0  0  0  0  0  0  0  0  0  0  0
    2.3676    4.9441   -2.5274 C   0  0  0  0  0  0  0  0  0  0  0  0
    2.0790    3.7151   -3.1187 C   0  0  0  0  0  0  0  0  0  0  0  0
    1.1187    3.6053   -4.1026 C   0  0  0  0  0  0  0  0  0  0  0  0
    0.4057    4.7206   -4.5274 C   0  0  0  0  0  0  0  0  0  0  0  0
   -0.8930    4.6584   -5.7215 S   0  0  0  0  0  0  0  0  0  0  0  0
   -1.6140    2.9971   -5.4534 C   0  0  0  0  0  0  0  0  0  0  0  0
   -2.1684    2.8271   -4.0520 C   0  0  0  0  0  0  0  0  0  0  0  0
    0.7564    5.9553   -3.9823 C   0  0  0  0  0  0  0  0  0  0  0  0
    0.1185    7.0649   -4.4015 F   0  0  0  0  0  0  0  0  0  0  0  0
    1.7165    6.0796   -3.0004 C   0  0  0  0  0  0  0  0  0  0  0  0
    4.3560    5.9013   -1.3176 C   0  0  0  0  0  0  0  0  0  0  0  0
    5.2564    5.9343   -0.2214 C   0  0  0  0  0  0  0  0  0  0  0  0
    5.0922    5.0503    0.8612 C   0  0  0  0  0  0  0  0  0  0  0  0
    6.0084    5.0787    2.0077 C   0  0  0  0  0  0  0  0  0  0  0  0
    6.6360    3.9190    2.4584 C   0  0  0  0  0  0  0  0  0  0  0  0
    7.5284    3.9666    3.5081 C   0  0  0  0  0  0  0  0  0  0  0  0
    7.8161    5.1629    4.1613 C   0  0  0  0  0  0  0  0  0  0  0  0
    8.9673    5.1073    5.5044 S   0  0  0  0  0  0  0  0  0  0  0  0
    9.9729    6.6216    5.2752 C   0  0  0  0  0  0  0  0  0  0  0  0
   10.6019    6.6875    3.8980 C   0  0  0  0  0  0  0  0  0  0  0  0
    7.1425    6.3035    3.7349 C   0  0  0  0  0  0  0  0  0  0  0  0
    6.2681    6.2759    2.6681 C   0  0  0  0  0  0  0  0  0  0  0  0
    7.3262    7.4894    4.3579 F   0  0  0  0  0  0  0  0  0  0  0  0
    4.0372    4.1555    0.7809 C   0  0  0  0  0  0  0  0  0  0  0  0
    3.6065    2.9591    1.9825 S   0  0  0  0  0  0  0  0  0  0  0  0
    6.2939    6.8761   -0.4173 C   0  0  0  0  0  0  0  0  0  0  0  0
    6.2197    7.5497   -1.6057 C   0  0  0  0  0  0  0  0  0  0  0  0
    4.8124    7.0554   -2.5410 S   0  0  0  0  0  0  0  0  0  0  0  0
    7.0783    8.5522   -2.1276 C   0  0  0  0  0  0  0  0  0  0  0  0
    6.4722    9.6321   -3.3383 S   0  0  0  0  0  0  0  0  0  0  0  0
    7.9536   10.5312   -3.4322 C   0  0  0  0  0  0  0  0  0  0  0  0
    8.9044    9.9771   -2.5574 C   0  0  0  0  0  0  0  0  0  0  0  0
    8.4107    8.8525   -1.8270 C   0  0  0  0  0  0  0  0  0  0  0  0
    9.2863    8.1589   -0.9645 C   0  0  0  0  0  0  0  0  0  0  0  0
   10.5737    8.5710   -0.7865 C   0  0  0  0  0  0  0  0  0  0  0  0
   11.5180    7.8550    0.1247 C   0  0  0  0  0  0  0  0  0  0  0  0
   11.0540    9.7093   -1.5033 C   0  0  0  0  0  0  0  0  0  0  0  0
   12.3543   10.0267   -1.2559 O   0  0  0  0  0  0  0  0  0  0  0  0
   12.9146   11.1299   -1.9237 C   0  0  0  0  0  0  0  0  0  0  0  0
   10.2429   10.3806   -2.3796 C   0  0  0  0  0  0  0  0  0  0  0  0
    8.0444   11.6782   -4.2591 C   0  0  0  0  0  0  0  0  0  0  0  0
    9.2318   12.9161   -3.9488 S   0  0  0  0  0  0  0  0  0  0  0  0
    8.6612   13.9092   -5.2133 C   0  0  0  0  0  0  0  0  0  0  0  0
    7.5998   13.3390   -5.8769 C   0  0  0  0  0  0  0  0  0  0  0  0
    7.2364   12.0612   -5.3390 C   0  0  0  0  0  0  0  0  0  0  0  0
    6.1825   11.3554   -5.9576 C   0  0  0  0  0  0  0  0  0  0  0  0
    5.5061   11.8855   -7.0164 C   0  0  0  0  0  0  0  0  0  0  0  0
    4.3873   11.1518   -7.6817 C   0  0  0  0  0  0  0  0  0  0  0  0
    5.8606   13.1786   -7.5246 C   0  0  0  0  0  0  0  0  0  0  0  0
    5.1017   13.5955   -8.5752 O   0  0  0  0  0  0  0  0  0  0  0  0
    5.3746   14.8529   -9.1390 C   0  0  0  0  0  0  0  0  0  0  0  0
    6.8907   13.8853   -6.9734 C   0  0  0  0  0  0  0  0  0  0  0  0
  -10.0333  -13.4768   -2.2811 H   0  0  0  0  0  0  0  0  0  0  0  0
   -9.5874  -10.9500   -2.7414 H   0  0  0  0  0  0  0  0  0  0  0  0
   -8.8029   -7.1521   -0.4799 H   0  0  0  0  0  0  0  0  0  0  0  0
   -9.1196   -5.3811   -2.1122 H   0  0  0  0  0  0  0  0  0  0  0  0
   -8.4924   -2.9902   -4.8754 H   0  0  0  0  0  0  0  0  0  0  0  0
   -9.1840   -3.6546   -3.3901 H   0  0  0  0  0  0  0  0  0  0  0  0
   -6.8712   -4.4585   -2.7244 H   0  0  0  0  0  0  0  0  0  0  0  0
   -6.9028   -2.7077   -2.9622 H   0  0  0  0  0  0  0  0  0  0  0  0
   -6.2276   -3.7590   -4.2114 H   0  0  0  0  0  0  0  0  0  0  0  0
   -7.5242   -9.8040   -3.5917 H   0  0  0  0  0  0  0  0  0  0  0  0
   -6.0210  -14.0896    0.6112 H   0  0  0  0  0  0  0  0  0  0  0  0
   -5.3474  -15.7341    2.2573 H   0  0  0  0  0  0  0  0  0  0  0  0
   -5.0618  -17.3350    3.6308 H   0  0  0  0  0  0  0  0  0  0  0  0
   -4.3427  -17.7028    5.2041 H   0  0  0  0  0  0  0  0  0  0  0  0
   -2.5551  -17.3601    3.4739 H   0  0  0  0  0  0  0  0  0  0  0  0
   -3.1425  -15.7153    3.2005 H   0  0  0  0  0  0  0  0  0  0  0  0
   -2.4602  -16.1569    4.7653 H   0  0  0  0  0  0  0  0  0  0  0  0
   -7.1151  -11.3817    3.7435 H   0  0  0  0  0  0  0  0  0  0  0  0
   -5.1441  -10.3183    2.8102 H   0  0  0  0  0  0  0  0  0  0  0  0
   -4.8572   -9.3955    4.6505 H   0  0  0  0  0  0  0  0  0  0  0  0
   -4.4219  -10.3356    6.7682 H   0  0  0  0  0  0  0  0  0  0  0  0
   -2.7714  -10.0381    7.3463 H   0  0  0  0  0  0  0  0  0  0  0  0
   -4.1012   -9.1076    8.0067 H   0  0  0  0  0  0  0  0  0  0  0  0
   -0.7758   -6.7345    8.8837 H   0  0  0  0  0  0  0  0  0  0  0  0
   -0.2848   -6.4278    7.1996 H   0  0  0  0  0  0  0  0  0  0  0  0
   -1.6306   -5.5038    7.9202 H   0  0  0  0  0  0  0  0  0  0  0  0
   -1.7843   -5.6212    5.6093 H   0  0  0  0  0  0  0  0  0  0  0  0
   -2.9925   -3.7063    1.0495 H   0  0  0  0  0  0  0  0  0  0  0  0
   -0.4385   -1.1381   -1.5206 H   0  0  0  0  0  0  0  0  0  0  0  0
   -1.7735   -0.8934   -3.5337 H   0  0  0  0  0  0  0  0  0  0  0  0
   -2.9714   -0.2522   -5.4334 H   0  0  0  0  0  0  0  0  0  0  0  0
   -3.0657   -2.0162   -5.1555 H   0  0  0  0  0  0  0  0  0  0  0  0
   -5.1730   -2.1007   -6.4878 H   0  0  0  0  0  0  0  0  0  0  0  0
   -3.8644   -1.4130   -7.4568 H   0  0  0  0  0  0  0  0  0  0  0  0
   -5.0918   -0.3573   -6.7462 H   0  0  0  0  0  0  0  0  0  0  0  0
   -4.0075   -1.4275    0.8302 H   0  0  0  0  0  0  0  0  0  0  0  0
    0.6017    0.5864    5.1739 H   0  0  0  0  0  0  0  0  0  0  0  0
    1.7722    0.5838    7.2974 H   0  0  0  0  0  0  0  0  0  0  0  0
    3.5034   -0.1174   10.4731 H   0  0  0  0  0  0  0  0  0  0  0  0
    3.0428    0.7381    8.9959 H   0  0  0  0  0  0  0  0  0  0  0  0
    0.6605   -0.1117    9.3234 H   0  0  0  0  0  0  0  0  0  0  0  0
    1.1817   -0.8982   10.8131 H   0  0  0  0  0  0  0  0  0  0  0  0
    1.1997    0.8654   10.6946 H   0  0  0  0  0  0  0  0  0  0  0  0
    1.5391   -3.5597    4.6394 H   0  0  0  0  0  0  0  0  0  0  0  0
    2.1603    0.7044    3.2881 H   0  0  0  0  0  0  0  0  0  0  0  0
    1.3063    3.0206   -0.8217 H   0  0  0  0  0  0  0  0  0  0  0  0
    2.6229    2.8353   -2.8094 H   0  0  0  0  0  0  0  0  0  0  0  0
    0.9207    2.6392   -4.5390 H   0  0  0  0  0  0  0  0  0  0  0  0
   -2.4103    2.9510   -6.1965 H   0  0  0  0  0  0  0  0  0  0  0  0
   -0.8660    2.2430   -5.6976 H   0  0  0  0  0  0  0  0  0  0  0  0
   -2.6769    1.8693   -3.9603 H   0  0  0  0  0  0  0  0  0  0  0  0
   -1.3742    2.8652   -3.3089 H   0  0  0  0  0  0  0  0  0  0  0  0
   -2.8833    3.6168   -3.8335 H   0  0  0  0  0  0  0  0  0  0  0  0
    1.9212    7.0543   -2.5866 H   0  0  0  0  0  0  0  0  0  0  0  0
    6.4465    2.9807    1.9609 H   0  0  0  0  0  0  0  0  0  0  0  0
    8.0291    3.0707    3.8404 H   0  0  0  0  0  0  0  0  0  0  0  0
   10.7335    6.5330    6.0509 H   0  0  0  0  0  0  0  0  0  0  0  0
    9.3549    7.4926    5.4824 H   0  0  0  0  0  0  0  0  0  0  0  0
    9.8395    6.7930    3.1283 H   0  0  0  0  0  0  0  0  0  0  0  0
   11.2669    7.5468    3.8402 H   0  0  0  0  0  0  0  0  0  0  0  0
   11.1764    5.7857    3.6960 H   0  0  0  0  0  0  0  0  0  0  0  0
    5.7684    7.1886    2.3814 H   0  0  0  0  0  0  0  0  0  0  0  0
    7.0551    7.0603    0.3159 H   0  0  0  0  0  0  0  0  0  0  0  0
    8.9420    7.2705   -0.4606 H   0  0  0  0  0  0  0  0  0  0  0  0
   11.8448    8.5230    0.9202 H   0  0  0  0  0  0  0  0  0  0  0  0
   11.0471    6.9796    0.5636 H   0  0  0  0  0  0  0  0  0  0  0  0
   12.4065    7.5486   -0.4245 H   0  0  0  0  0  0  0  0  0  0  0  0
   13.9363   11.2090   -1.5553 H   0  0  0  0  0  0  0  0  0  0  0  0
   12.3733   12.0540   -1.6972 H   0  0  0  0  0  0  0  0  0  0  0  0
   12.9314   10.9776   -3.0077 H   0  0  0  0  0  0  0  0  0  0  0  0
   10.6214   11.2060   -2.9557 H   0  0  0  0  0  0  0  0  0  0  0  0
    9.1357   14.8511   -5.4019 H   0  0  0  0  0  0  0  0  0  0  0  0
    5.9087   10.3755   -5.6012 H   0  0  0  0  0  0  0  0  0  0  0  0
    4.2146   10.1919   -7.2032 H   0  0  0  0  0  0  0  0  0  0  0  0
    4.6167   10.9942   -8.7345 H   0  0  0  0  0  0  0  0  0  0  0  0
    3.4749   11.7443   -7.6362 H   0  0  0  0  0  0  0  0  0  0  0  0
    4.6505   14.9810   -9.9421 H   0  0  0  0  0  0  0  0  0  0  0  0
    6.3871   14.8962   -9.5541 H   0  0  0  0  0  0  0  0  0  0  0  0
    5.2496   15.6572   -8.4066 H   0  0  0  0  0  0  0  0  0  0  0  0
    7.1936   14.8517   -7.3427 H   0  0  0  0  0  0  0  0  0  0  0  0
  1  2  2  0  0  0  0
  2  3  1  0  0  0  0
  3  4  2  0  0  0  0
  4  5  1  0  0  0  0
  5  6  2  0  0  0  0
  6  7  1  0  0  0  0
  7  8  2  0  0  0  0
  8  9  1  0  0  0  0
  9 10  1  0  0  0  0
 10 11  1  0  0  0  0
  8 12  1  0  0  0  0
 12 13  1  0  0  0  0
 12 14  2  0  0  0  0
  4 15  1  0  0  0  0
 15 16  2  0  0  0  0
 16 17  1  0  0  0  0
 17 18  1  0  0  0  0
 18 19  2  0  0  0  0
 19 20  1  0  0  0  0
 20 21  2  0  0  0  0
 21 22  1  0  0  0  0
 22 23  1  0  0  0  0
 23 24  1  0  0  0  0
 21 25  1  0  0  0  0
 25 26  2  0  0  0  0
 25 27  1  0  0  0  0
 17 28  2  0  0  0  0
 28 29  1  0  0  0  0
 16 30  1  0  0  0  0
 30 31  2  0  0  0  0
 31 32  1  0  0  0  0
 31 33  1  0  0  0  0
 33 34  1  0  0  0  0
 34 35  1  0  0  0  0
 35 36  2  0  0  0  0
 36 37  1  0  0  0  0
 37 38  1  0  0  0  0
 38 39  2  0  0  0  0
 39 40  1  0  0  0  0
 39 41  1  0  0  0  0
 41 42  1  0  0  0  0
 42 43  1  0  0  0  0
 41 44  2  0  0  0  0
 35 45  1  0  0  0  0
 45 46  2  0  0  0  0
 46 47  1  0  0  0  0
 47 48  2  0  0  0  0
 48 49  1  0  0  0  0
 49 50  2  0  0  0  0
 50 51  1  0  0  0  0
 51 52  2  0  0  0  0
 52 53  1  0  0  0  0
 53 54  1  0  0  0  0
 54 55  1  0  0  0  0
 52 56  1  0  0  0  0
 56 57  1  0  0  0  0
 56 58  2  0  0  0  0
 48 59  1  0  0  0  0
 59 60  2  0  0  0  0
 60 61  1  0  0  0  0
 61 62  1  0  0  0  0
 62 63  2  0  0  0  0
 63 64  1  0  0  0  0
 64 65  2  0  0  0  0
 65 66  1  0  0  0  0
 66 67  1  0  0  0  0
 67 68  1  0  0  0  0
 65 69  1  0  0  0  0
 69 70  2  0  0  0  0
 69 71  1  0  0  0  0
 61 72  2  0  0  0  0
 72 73  1  0  0  0  0
 60 74  1  0  0  0  0
 74 75  2  0  0  0  0
 75 76  1  0  0  0  0
 75 77  1  0  0  0  0
 77 78  2  0  0  0  0
 78 79  1  0  0  0  0
 79 80  2  0  0  0  0
 80 81  1  0  0  0  0
 81 82  2  0  0  0  0
 82 83  1  0  0  0  0
 83 84  2  0  0  0  0
 84 85  1  0  0  0  0
 85 86  1  0  0  0  0
 86 87  1  0  0  0  0
 84 88  1  0  0  0  0
 88 89  1  0  0  0  0
 88 90  2  0  0  0  0
 80 91  1  0  0  0  0
 91 92  2  0  0  0  0
 92 93  1  0  0  0  0
 93 94  1  0  0  0  0
 94 95  2  0  0  0  0
 95 96  1  0  0  0  0
 96 97  2  0  0  0  0
 97 98  1  0  0  0  0
 98 99  1  0  0  0  0
 99100  1  0  0  0  0
 97101  1  0  0  0  0
101102  2  0  0  0  0
101103  1  0  0  0  0
 93104  2  0  0  0  0
104105  1  0  0  0  0
 92106  1  0  0  0  0
106107  2  0  0  0  0
107108  1  0  0  0  0
107109  1  0  0  0  0
109110  1  0  0  0  0
110111  1  0  0  0  0
111112  2  0  0  0  0
112113  1  0  0  0  0
113114  1  0  0  0  0
114115  2  0  0  0  0
115116  1  0  0  0  0
115117  1  0  0  0  0
117118  1  0  0  0  0
118119  1  0  0  0  0
117120  2  0  0  0  0
111121  1  0  0  0  0
121122  1  0  0  0  0
122123  1  0  0  0  0
123124  2  0  0  0  0
124125  1  0  0  0  0
125126  1  0  0  0  0
126127  2  0  0  0  0
127128  1  0  0  0  0
127129  1  0  0  0  0
129130  1  0  0  0  0
130131  1  0  0  0  0
129132  2  0  0  0  0
 29  1  1  0  0  0  0
 37 33  2  0  0  0  0
 73 45  1  0  0  0  0
105 77  1  0  0  0  0
113109  2  0  0  0  0
125121  2  0  0  0  0
 28  3  1  0  0  0  0
 44 36  1  0  0  0  0
 72 47  1  0  0  0  0
104 79  1  0  0  0  0
120112  1  0  0  0  0
132124  1  0  0  0  0
 14  5  1  0  0  0  0
 32 15  1  0  0  0  0
 58 49  1  0  0  0  0
 76 59  1  0  0  0  0
 90 81  1  0  0  0  0
108 91  1  0  0  0  0
 26 18  1  0  0  0  0
 70 62  1  0  0  0  0
102 94  1  0  0  0  0
  1133  1  0  0  0  0
  2134  1  0  0  0  0
  6135  1  0  0  0  0
  7136  1  0  0  0  0
 10137  1  0  0  0  0
 10138  1  0  0  0  0
 11139  1  0  0  0  0
 11140  1  0  0  0  0
 11141  1  0  0  0  0
 14142  1  0  0  0  0
 19143  1  0  0  0  0
 20144  1  0  0  0  0
 23145  1  0  0  0  0
 23146  1  0  0  0  0
 24147  1  0  0  0  0
 24148  1  0  0  0  0
 24149  1  0  0  0  0
 26150  1  0  0  0  0
 30151  1  0  0  0  0
 38152  1  0  0  0  0
 40153  1  0  0  0  0
 40154  1  0  0  0  0
 40155  1  0  0  0  0
 43156  1  0  0  0  0
 43157  1  0  0  0  0
 43158  1  0  0  0  0
 44159  1  0  0  0  0
 46160  1  0  0  0  0
 50161  1  0  0  0  0
 51162  1  0  0  0  0
 54163  1  0  0  0  0
 54164  1  0  0  0  0
 55165  1  0  0  0  0
 55166  1  0  0  0  0
 55167  1  0  0  0  0
 58168  1  0  0  0  0
 63169  1  0  0  0  0
 64170  1  0  0  0  0
 67171  1  0  0  0  0
 67172  1  0  0  0  0
 68173  1  0  0  0  0
 68174  1  0  0  0  0
 68175  1  0  0  0  0
 70176  1  0  0  0  0
 74177  1  0  0  0  0
 78178  1  0  0  0  0
 82179  1  0  0  0  0
 83180  1  0  0  0  0
 86181  1  0  0  0  0
 86182  1  0  0  0  0
 87183  1  0  0  0  0
 87184  1  0  0  0  0
 87185  1  0  0  0  0
 90186  1  0  0  0  0
 95187  1  0  0  0  0
 96188  1  0  0  0  0
 99189  1  0  0  0  0
 99190  1  0  0  0  0
100191  1  0  0  0  0
100192  1  0  0  0  0
100193  1  0  0  0  0
102194  1  0  0  0  0
106195  1  0  0  0  0
114196  1  0  0  0  0
116197  1  0  0  0  0
116198  1  0  0  0  0
116199  1  0  0  0  0
119200  1  0  0  0  0
119201  1  0  0  0  0
119202  1  0  0  0  0
120203  1  0  0  0  0
123204  1  0  0  0  0
126205  1  0  0  0  0
128206  1  0  0  0  0
128207  1  0  0  0  0
128208  1  0  0  0  0
131209  1  0  0  0  0
131210  1  0  0  0  0
131211  1  0  0  0  0
132212  1  0  0  0  0
M  END
