
  xtb     03042205293D
 energy: -190.092090295907 gnorm: 0.000549024341 xtb: 6.4.1 (unknown)
122133  0     0  0            999 V2000
    8.1087   -0.6204   -5.9446 C   0  0  0  0  0  0  0  0  0  0  0  0
    7.0916   -1.8180   -5.2891 S   0  0  0  0  0  0  0  0  0  0  0  0
    5.8765   -0.6523   -4.8632 C   0  0  0  0  0  0  0  0  0  0  0  0
    6.2646    0.6287   -5.2356 C   0  0  0  0  0  0  0  0  0  0  0  0
    7.5710    0.6417   -5.8476 C   0  0  0  0  0  0  0  0  0  0  0  0
    8.1300    1.8661   -6.3285 C   0  0  0  0  0  0  0  0  0  0  0  0
    9.4849    1.9704   -6.8561 C   0  0  0  0  0  0  0  0  0  0  0  0
   10.5484    1.3100   -6.4154 C   0  0  0  0  0  0  0  0  0  0  0  0
    7.3368    2.9829   -6.2769 C   0  0  0  0  0  0  0  0  0  0  0  0
    6.0468    2.9592   -5.7169 C   0  0  0  0  0  0  0  0  0  0  0  0
    5.4963    1.8276   -5.1814 C   0  0  0  0  0  0  0  0  0  0  0  0
    4.1202    1.8559   -4.5977 C   0  0  0  0  0  0  0  0  0  0  0  0
    4.7115   -1.1284   -4.1630 C   0  0  0  0  0  0  0  0  0  0  0  0
    4.4688   -0.7124   -2.5014 S   0  0  0  0  0  0  0  0  0  0  0  0
    3.1134   -1.7908   -2.3377 C   0  0  0  0  0  0  0  0  0  0  0  0
    2.8935   -2.4928   -3.5252 C   0  0  0  0  0  0  0  0  0  0  0  0
    3.7878   -2.0812   -4.5745 C   0  0  0  0  0  0  0  0  0  0  0  0
    3.6660   -2.6234   -5.8889 C   0  0  0  0  0  0  0  0  0  0  0  0
    4.4261   -2.0812   -7.0096 C   0  0  0  0  0  0  0  0  0  0  0  0
    4.8834   -2.7961   -8.0292 C   0  0  0  0  0  0  0  0  0  0  0  0
    2.7593   -3.6365   -6.0710 C   0  0  0  0  0  0  0  0  0  0  0  0
    1.9864   -4.1333   -5.0109 C   0  0  0  0  0  0  0  0  0  0  0  0
    2.0179   -3.5912   -3.7528 C   0  0  0  0  0  0  0  0  0  0  0  0
    1.1890   -4.2008   -2.6680 C   0  0  0  0  0  0  0  0  0  0  0  0
    2.3932   -1.7475   -1.1064 C   0  0  0  0  0  0  0  0  0  0  0  0
    0.6699   -1.5274   -1.0537 S   0  0  0  0  0  0  0  0  0  0  0  0
    0.6404   -1.4438    0.6814 C   0  0  0  0  0  0  0  0  0  0  0  0
    1.9393   -1.5030    1.1948 C   0  0  0  0  0  0  0  0  0  0  0  0
    2.9282   -1.6819    0.1818 C   0  0  0  0  0  0  0  0  0  0  0  0
    4.2821   -1.8145    0.5625 C   0  0  0  0  0  0  0  0  0  0  0  0
    4.6529   -1.7123    1.8697 C   0  0  0  0  0  0  0  0  0  0  0  0
    6.0762   -1.8527    2.3043 C   0  0  0  0  0  0  0  0  0  0  0  0
    3.6632   -1.4406    2.8678 C   0  0  0  0  0  0  0  0  0  0  0  0
    4.1546   -1.3148    4.1334 O   0  0  0  0  0  0  0  0  0  0  0  0
    3.2468   -1.0818    5.1804 C   0  0  0  0  0  0  0  0  0  0  0  0
    2.3401   -1.3324    2.5371 C   0  0  0  0  0  0  0  0  0  0  0  0
   -0.5867   -1.3102    1.3799 C   0  0  0  0  0  0  0  0  0  0  0  0
   -1.8725   -0.3450    0.7223 S   0  0  0  0  0  0  0  0  0  0  0  0
   -2.8606   -0.5429    2.1348 C   0  0  0  0  0  0  0  0  0  0  0  0
   -2.2426   -1.3927    3.0508 C   0  0  0  0  0  0  0  0  0  0  0  0
   -0.9588   -1.8400    2.6194 C   0  0  0  0  0  0  0  0  0  0  0  0
   -0.2756   -2.7983    3.4011 C   0  0  0  0  0  0  0  0  0  0  0  0
   -0.7922   -3.2304    4.5862 C   0  0  0  0  0  0  0  0  0  0  0  0
   -0.0836   -4.2338    5.4400 C   0  0  0  0  0  0  0  0  0  0  0  0
   -2.0619   -2.7401    5.0304 C   0  0  0  0  0  0  0  0  0  0  0  0
   -2.4719   -3.2378    6.2315 O   0  0  0  0  0  0  0  0  0  0  0  0
   -3.7049   -2.8018    6.7457 C   0  0  0  0  0  0  0  0  0  0  0  0
   -2.7832   -1.8660    4.2653 C   0  0  0  0  0  0  0  0  0  0  0  0
   -4.1326    0.0879    2.2429 C   0  0  0  0  0  0  0  0  0  0  0  0
   -5.2154    0.0393    0.8925 S   0  0  0  0  0  0  0  0  0  0  0  0
   -6.5198    0.7201    1.8112 C   0  0  0  0  0  0  0  0  0  0  0  0
   -6.1259    0.9996    3.1157 C   0  0  0  0  0  0  0  0  0  0  0  0
   -4.7390    0.6869    3.3489 C   0  0  0  0  0  0  0  0  0  0  0  0
   -4.1336    1.0413    4.5900 C   0  0  0  0  0  0  0  0  0  0  0  0
   -2.6895    1.0484    4.8282 C   0  0  0  0  0  0  0  0  0  0  0  0
   -1.7893    1.5281    3.9827 C   0  0  0  0  0  0  0  0  0  0  0  0
   -4.9530    1.5055    5.5890 C   0  0  0  0  0  0  0  0  0  0  0  0
   -6.3141    1.7711    5.3711 C   0  0  0  0  0  0  0  0  0  0  0  0
   -6.9070    1.5879    4.1519 C   0  0  0  0  0  0  0  0  0  0  0  0
   -8.3220    2.0203    3.9341 C   0  0  0  0  0  0  0  0  0  0  0  0
   -7.8022    0.8088    1.1622 C   0  0  0  0  0  0  0  0  0  0  0  0
   -9.1048   -0.2288    1.6571 S   0  0  0  0  0  0  0  0  0  0  0  0
  -10.0992    0.2843    0.3700 C   0  0  0  0  0  0  0  0  0  0  0  0
   -9.4726    1.2020   -0.4408 C   0  0  0  0  0  0  0  0  0  0  0  0
   -8.1447    1.5131    0.0166 C   0  0  0  0  0  0  0  0  0  0  0  0
   -7.3639    2.4818   -0.6843 C   0  0  0  0  0  0  0  0  0  0  0  0
   -6.0684    2.9217   -0.1753 C   0  0  0  0  0  0  0  0  0  0  0  0
   -5.0234    3.2251   -0.9329 C   0  0  0  0  0  0  0  0  0  0  0  0
   -7.9030    3.0276   -1.8205 C   0  0  0  0  0  0  0  0  0  0  0  0
   -9.1917    2.6925   -2.2828 C   0  0  0  0  0  0  0  0  0  0  0  0
   -9.9951    1.8146   -1.6160 C   0  0  0  0  0  0  0  0  0  0  0  0
  -11.3802    1.4845   -2.0737 C   0  0  0  0  0  0  0  0  0  0  0  0
    9.0310   -0.9139   -6.4021 H   0  0  0  0  0  0  0  0  0  0  0  0
    9.6105    2.7126   -7.6360 H   0  0  0  0  0  0  0  0  0  0  0  0
   10.4927    0.6096   -5.5999 H   0  0  0  0  0  0  0  0  0  0  0  0
   11.5243    1.4706   -6.8414 H   0  0  0  0  0  0  0  0  0  0  0  0
    7.7171    3.9206   -6.6570 H   0  0  0  0  0  0  0  0  0  0  0  0
    5.4765    3.8772   -5.7094 H   0  0  0  0  0  0  0  0  0  0  0  0
    3.6139    2.7781   -4.8733 H   0  0  0  0  0  0  0  0  0  0  0  0
    3.5299    1.0109   -4.9496 H   0  0  0  0  0  0  0  0  0  0  0  0
    4.1647    1.8020   -3.5099 H   0  0  0  0  0  0  0  0  0  0  0  0
    4.5973   -1.0120   -6.9867 H   0  0  0  0  0  0  0  0  0  0  0  0
    5.4105   -2.3380   -8.8484 H   0  0  0  0  0  0  0  0  0  0  0  0
    4.7677   -3.8662   -8.0721 H   0  0  0  0  0  0  0  0  0  0  0  0
    2.6291   -4.0607   -7.0551 H   0  0  0  0  0  0  0  0  0  0  0  0
    1.3320   -4.9716   -5.2033 H   0  0  0  0  0  0  0  0  0  0  0  0
    0.2577   -3.6508   -2.5342 H   0  0  0  0  0  0  0  0  0  0  0  0
    1.7236   -4.1970   -1.7201 H   0  0  0  0  0  0  0  0  0  0  0  0
    0.9388   -5.2273   -2.9272 H   0  0  0  0  0  0  0  0  0  0  0  0
    5.0283   -2.0003   -0.1949 H   0  0  0  0  0  0  0  0  0  0  0  0
    6.1682   -2.6612    3.0280 H   0  0  0  0  0  0  0  0  0  0  0  0
    6.4074   -0.9395    2.7963 H   0  0  0  0  0  0  0  0  0  0  0  0
    6.7216   -2.0560    1.4542 H   0  0  0  0  0  0  0  0  0  0  0  0
    3.8448   -1.0585    6.0902 H   0  0  0  0  0  0  0  0  0  0  0  0
    2.5020   -1.8812    5.2541 H   0  0  0  0  0  0  0  0  0  0  0  0
    2.7323   -0.1226    5.0610 H   0  0  0  0  0  0  0  0  0  0  0  0
    1.5882   -1.1031    3.2728 H   0  0  0  0  0  0  0  0  0  0  0  0
    0.6544   -3.2079    3.0376 H   0  0  0  0  0  0  0  0  0  0  0  0
    0.8589   -4.5310    4.9874 H   0  0  0  0  0  0  0  0  0  0  0  0
    0.1061   -3.8165    6.4281 H   0  0  0  0  0  0  0  0  0  0  0  0
   -0.7076   -5.1154    5.5778 H   0  0  0  0  0  0  0  0  0  0  0  0
   -3.8089   -3.2859    7.7156 H   0  0  0  0  0  0  0  0  0  0  0  0
   -4.5385   -3.0992    6.1013 H   0  0  0  0  0  0  0  0  0  0  0  0
   -3.7248   -1.7148    6.8768 H   0  0  0  0  0  0  0  0  0  0  0  0
   -3.7684   -1.5385    4.5507 H   0  0  0  0  0  0  0  0  0  0  0  0
   -2.3790    0.7289    5.8160 H   0  0  0  0  0  0  0  0  0  0  0  0
   -2.0623    1.9035    3.0112 H   0  0  0  0  0  0  0  0  0  0  0  0
   -0.7430    1.5675    4.2332 H   0  0  0  0  0  0  0  0  0  0  0  0
   -4.5244    1.7530    6.5500 H   0  0  0  0  0  0  0  0  0  0  0  0
   -6.8919    2.1891    6.1829 H   0  0  0  0  0  0  0  0  0  0  0  0
   -8.4339    2.5129    2.9699 H   0  0  0  0  0  0  0  0  0  0  0  0
   -8.9953    1.1632    3.9539 H   0  0  0  0  0  0  0  0  0  0  0  0
   -8.6265    2.7092    4.7188 H   0  0  0  0  0  0  0  0  0  0  0  0
  -11.0853   -0.1233    0.2774 H   0  0  0  0  0  0  0  0  0  0  0  0
   -5.9939    3.0031    0.9024 H   0  0  0  0  0  0  0  0  0  0  0  0
   -4.0953    3.5658   -0.5070 H   0  0  0  0  0  0  0  0  0  0  0  0
   -5.0478    3.1172   -2.0043 H   0  0  0  0  0  0  0  0  0  0  0  0
   -7.3388    3.7705   -2.3642 H   0  0  0  0  0  0  0  0  0  0  0  0
   -9.5537    3.1700   -3.1824 H   0  0  0  0  0  0  0  0  0  0  0  0
  -11.6240    2.0297   -2.9820 H   0  0  0  0  0  0  0  0  0  0  0  0
  -12.1070    1.7447   -1.3044 H   0  0  0  0  0  0  0  0  0  0  0  0
  -11.4716    0.4168   -2.2715 H   0  0  0  0  0  0  0  0  0  0  0  0
  1  2  1  0  0  0  0
  2  3  1  0  0  0  0
  3  4  2  0  0  0  0
  4  5  1  0  0  0  0
  5  6  1  0  0  0  0
  6  7  1  0  0  0  0
  7  8  2  0  0  0  0
  6  9  2  0  0  0  0
  9 10  1  0  0  0  0
 10 11  2  0  0  0  0
 11 12  1  0  0  0  0
  3 13  1  0  0  0  0
 13 14  1  0  0  0  0
 14 15  1  0  0  0  0
 15 16  2  0  0  0  0
 16 17  1  0  0  0  0
 17 18  1  0  0  0  0
 18 19  1  0  0  0  0
 19 20  2  0  0  0  0
 18 21  2  0  0  0  0
 21 22  1  0  0  0  0
 22 23  2  0  0  0  0
 23 24  1  0  0  0  0
 15 25  1  0  0  0  0
 25 26  1  0  0  0  0
 26 27  1  0  0  0  0
 27 28  2  0  0  0  0
 28 29  1  0  0  0  0
 29 30  1  0  0  0  0
 30 31  2  0  0  0  0
 31 32  1  0  0  0  0
 31 33  1  0  0  0  0
 33 34  1  0  0  0  0
 34 35  1  0  0  0  0
 33 36  2  0  0  0  0
 27 37  1  0  0  0  0
 37 38  1  0  0  0  0
 38 39  1  0  0  0  0
 39 40  2  0  0  0  0
 40 41  1  0  0  0  0
 41 42  1  0  0  0  0
 42 43  2  0  0  0  0
 43 44  1  0  0  0  0
 43 45  1  0  0  0  0
 45 46  1  0  0  0  0
 46 47  1  0  0  0  0
 45 48  2  0  0  0  0
 39 49  1  0  0  0  0
 49 50  1  0  0  0  0
 50 51  1  0  0  0  0
 51 52  2  0  0  0  0
 52 53  1  0  0  0  0
 53 54  1  0  0  0  0
 54 55  1  0  0  0  0
 55 56  2  0  0  0  0
 54 57  2  0  0  0  0
 57 58  1  0  0  0  0
 58 59  2  0  0  0  0
 59 60  1  0  0  0  0
 51 61  1  0  0  0  0
 61 62  1  0  0  0  0
 62 63  1  0  0  0  0
 63 64  2  0  0  0  0
 64 65  1  0  0  0  0
 65 66  1  0  0  0  0
 66 67  1  0  0  0  0
 67 68  2  0  0  0  0
 66 69  2  0  0  0  0
 69 70  1  0  0  0  0
 70 71  2  0  0  0  0
 71 72  1  0  0  0  0
  5  1  2  0  0  0  0
 17 13  2  0  0  0  0
 29 25  2  0  0  0  0
 41 37  2  0  0  0  0
 53 49  2  0  0  0  0
 65 61  2  0  0  0  0
 11  4  1  0  0  0  0
 23 16  1  0  0  0  0
 36 28  1  0  0  0  0
 48 40  1  0  0  0  0
 59 52  1  0  0  0  0
 71 64  1  0  0  0  0
  1 73  1  0  0  0  0
  7 74  1  0  0  0  0
  8 75  1  0  0  0  0
  8 76  1  0  0  0  0
  9 77  1  0  0  0  0
 10 78  1  0  0  0  0
 12 79  1  0  0  0  0
 12 80  1  0  0  0  0
 12 81  1  0  0  0  0
 19 82  1  0  0  0  0
 20 83  1  0  0  0  0
 20 84  1  0  0  0  0
 21 85  1  0  0  0  0
 22 86  1  0  0  0  0
 24 87  1  0  0  0  0
 24 88  1  0  0  0  0
 24 89  1  0  0  0  0
 30 90  1  0  0  0  0
 32 91  1  0  0  0  0
 32 92  1  0  0  0  0
 32 93  1  0  0  0  0
 35 94  1  0  0  0  0
 35 95  1  0  0  0  0
 35 96  1  0  0  0  0
 36 97  1  0  0  0  0
 42 98  1  0  0  0  0
 44 99  1  0  0  0  0
 44100  1  0  0  0  0
 44101  1  0  0  0  0
 47102  1  0  0  0  0
 47103  1  0  0  0  0
 47104  1  0  0  0  0
 48105  1  0  0  0  0
 55106  1  0  0  0  0
 56107  1  0  0  0  0
 56108  1  0  0  0  0
 57109  1  0  0  0  0
 58110  1  0  0  0  0
 60111  1  0  0  0  0
 60112  1  0  0  0  0
 60113  1  0  0  0  0
 63114  1  0  0  0  0
 67115  1  0  0  0  0
 68116  1  0  0  0  0
 68117  1  0  0  0  0
 69118  1  0  0  0  0
 70119  1  0  0  0  0
 72120  1  0  0  0  0
 72121  1  0  0  0  0
 72122  1  0  0  0  0
M  END
