272

C        -14.78360        2.63110       13.54420
C        -13.49590        2.24970       13.66230
C        -12.96000        1.71650       12.45200
C        -11.65550        1.26050       12.20700
C        -10.63860        1.20630       13.26480
C         -9.37210        1.75500       13.06910
C         -8.41850        1.69250       14.06100
C         -8.67880        1.07100       15.28220
S         -7.35520        1.01140       16.44790
C         -8.19100        1.05230       18.08440
C         -7.21150        1.57670       19.11580
C         -9.93920        0.50650       15.45470
F        -10.25660       -0.15070       16.59410
C        -10.91060        0.58020       14.47670
C        -11.37250        0.85200       10.91160
C        -12.33160        0.87250        9.87030
C        -13.63530        1.33230       10.11310
C        -14.61780        1.37580        9.02400
C        -15.87500        0.78910        9.14970
C        -16.74370        0.75960        8.07900
C        -16.40580        1.32910        6.85300
S        -17.57800        1.21290        5.53460
C        -16.54070        0.83930        4.06930
C        -15.69250       -0.40020        4.26720
C        -15.17700        1.97740        6.76640
C        -14.28600        1.98870        7.81880
F        -14.81000        2.62030        5.63610
C        -13.91950        1.73310       11.41000
S        -15.44260        2.37740       11.96450
C        -11.80790        0.35250        8.66010
C        -10.50650       -0.03760        8.74930
S         -9.84820        0.20440       10.35640
C         -9.70000       -0.55850        7.69550
C         -8.40970       -0.99140        7.74890
C         -7.90000       -1.41100        6.49340
C         -6.59990       -1.85150        6.19280
C         -5.60350       -2.05450        7.25050
C         -4.32060       -1.51740        7.15710
C         -3.40380       -1.71110        8.16700
C         -3.71710       -2.45840        9.30260
S         -2.44400       -2.66330       10.50610
C         -3.34880       -2.81240       12.10000
C         -2.41350       -2.42640       13.22870
C         -4.99070       -3.01720        9.36610
F         -5.35650       -3.80080       10.40620
C         -5.92610       -2.81080        8.37320
C         -6.31850       -2.08540        4.85560
C         -7.27620       -1.93410        3.82110
C         -8.58170       -1.51230        4.12340
C         -9.58740       -1.29200        3.07830
C         -9.29030       -0.53240        1.94950
C        -10.23770       -0.30060        0.97200
C        -11.52040       -0.82530        1.08420
S        -12.82210       -0.59620       -0.08030
C        -11.96720       -0.05440       -1.60020
C        -11.12050       -1.15470       -2.21100
C        -11.81010       -1.56740        2.23030
C        -10.87630       -1.80510        3.21260
F        -13.05040       -2.07540        2.38290
C         -8.85820       -1.26650        5.45990
S        -10.36950       -0.65600        6.07790
C         -6.73800       -2.26400        2.55230
C         -5.42370       -2.62220        2.59140
S         -4.78160       -2.61740        4.22300
C         -4.56610       -2.89460        1.48680
C         -3.22850       -3.15260        1.51230
C         -2.64320       -3.25330        0.22560
C         -1.28950       -3.46440       -0.08840
C         -0.29570       -3.74120        0.95520
C         -0.52490       -4.72450        1.91380
C          0.40970       -5.00630        2.89160
C          1.61410       -4.31390        2.94530
S          2.88880       -4.54590        4.13730
C          2.39890       -6.05310        5.04250
C          2.60390       -7.31250        4.22170
C          1.82690       -3.32660        1.98110
F          2.97940       -2.62520        2.01220
C          0.90550       -3.03530        1.00250
C         -0.94680       -3.38280       -1.42860
C         -1.89230       -3.16080       -2.46050
C         -3.25720       -3.02100       -2.15110
C         -4.25210       -2.86300       -3.21730
C         -5.21860       -1.85970       -3.18100
C         -6.11940       -1.71570       -4.21390
C         -6.10770       -2.56740       -5.31760
S         -7.33940       -2.29270       -6.55590
C         -6.50310       -2.68810       -8.13610
C         -5.25810       -1.85130       -8.35160
C         -5.16190       -3.58820       -5.32200
C         -4.24040       -3.73110       -4.30550
F         -5.10660       -4.48550       -6.33340
C         -3.59150       -3.03760       -0.80590
S         -5.19020       -2.79270       -0.14980
C         -1.27640       -3.02910       -3.72950
C          0.08240       -3.17270       -3.70010
S          0.66420       -3.51800       -2.07720
C          1.04740       -2.96640       -4.72340
S          2.66170       -2.59330       -4.23940
C          3.18230       -2.28190       -5.86060
C          2.13650       -2.51250       -6.76490
C          0.92320       -2.90720       -6.11530
C         -0.20910       -3.20980       -6.90090
C         -0.17820       -3.08480       -8.25810
C         -1.36730       -3.39030       -9.11050
C          1.02750       -2.65940       -8.89900
O          0.94320       -2.55960      -10.25220
C          2.07770       -2.14400      -10.97220
C          2.15870       -2.40200       -8.16980
C          4.50230       -1.78120       -6.02580
C          5.14540       -1.25670       -7.11340
C          6.43740       -0.74860       -6.83090
C          7.32240       -0.09720       -7.70940
C          6.95720        0.13810       -9.11140
C          5.73970        0.73160       -9.44670
C          5.38230        0.90420      -10.76530
C          6.22250        0.50630      -11.80630
S          5.63780        0.79500      -13.44600
C          6.46720       -0.48840      -14.46640
C          5.68020       -0.67250      -15.74880
C          7.45510       -0.03640      -11.45630
F          8.34990       -0.40080      -12.40240
C          7.81790       -0.23120      -10.13840
C          8.53300        0.32140       -7.17780
C          8.88050        0.13850       -5.81590
C          7.99450       -0.50180       -4.93430
C          8.29140       -0.65470       -3.50450
C          8.69020        0.43390       -2.72940
C          8.90830        0.29140       -1.37510
C          8.74640       -0.93950       -0.74420
S          9.03680       -1.03370        0.99940
C          7.60570       -2.00670        1.60350
C          6.28480       -1.37770        1.21230
C          8.38830       -2.02620       -1.53640
C          8.14590       -1.89330       -2.88810
F          8.27210       -3.25930       -1.00040
C          6.79870       -0.94180       -5.47450
S          5.51530       -1.71160       -4.58710
C         10.14990        0.68190       -5.51520
C         10.74890        1.30220       -6.57360
S          9.77940        1.20130       -8.02840
C         11.98360        2.01810       -6.52370
C         12.73680        2.21050       -5.40270
C         13.86470        3.04090       -5.60510
C         14.81880        3.43270       -4.65110
C         14.65360        3.04140       -3.24700
C         15.68330        2.45160       -2.51640
C         15.46370        2.00540       -1.23090
C         14.21880        2.13240       -0.61290
S         14.06640        1.49020        1.02470
C         12.34170        0.86590        1.14280
C         11.44890        1.76080        1.97770
C         13.22080        2.78420       -1.33100
F         12.00020        3.00840       -0.79140
C         13.42260        3.22430       -2.62220
C         15.87660        4.19920       -5.11640
C         16.00070        4.60380       -6.46880
C         15.03610        4.22570       -7.41570
C         15.14050        4.61140       -8.82820
C         14.06630        5.19950       -9.48880
C         14.14830        5.54120      -10.82440
C         15.30530        5.29190      -11.55350
S         15.53930        5.67920      -13.25640
C         13.84280        5.89950      -13.89570
C         13.05890        4.60120      -13.91020
C         16.37860        4.71130      -10.87540
C         16.31340        4.37430       -9.54230
F         17.52160        4.46320      -11.54670
C         13.97800        3.45650       -6.95330
S         12.65850        2.83700       -7.91680
C         17.14040        5.44130       -6.66000
C         17.83920        5.64610       -5.52560
S         17.17220        4.84590       -4.14360
H        -15.41500        3.05930       14.29810
H        -12.92410        2.35410       14.56630
H         -9.14360        2.25690       12.14180
H         -7.44360        2.12870       13.90940
H         -8.52010        0.04380       18.33010
H         -9.05350        1.71020       17.98960
H         -7.68970        1.61140       20.09230
H         -6.33980        0.92910       19.17720
H         -6.87850        2.57810       18.85230
H        -11.86480        0.10960       14.65770
H        -16.15540        0.31830       10.07910
H        -17.70430        0.27720        8.16910
H        -15.93850        1.71300        3.83020
H        -17.27670        0.68900        3.27970
H        -15.17320       -0.64170        3.34250
H        -14.94820       -0.24410        5.04620
H        -16.31340       -1.24810        4.54830
H        -13.34510        2.50340        7.69750
H        -12.37920        0.25150        7.75500
H         -7.83330       -0.98130        8.65660
H         -4.05090       -0.91860        6.30130
H         -2.41720       -1.28020        8.09770
H         -4.20380       -2.14000       12.05000
H         -3.69170       -3.84040       12.20690
H         -1.54510       -3.08110       13.24560
H         -2.07050       -1.40130       13.10810
H         -2.93420       -2.51190       14.17990
H         -6.89410       -3.27790        8.46940
H         -8.31110       -0.08930        1.84820
H         -9.97010        0.30740        0.12310
H        -12.78640        0.21860       -2.26540
H        -11.39040        0.84230       -1.37690
H        -10.66970       -0.80460       -3.13760
H        -10.32650       -1.46200       -1.53350
H        -11.73670       -2.02290       -2.43200
H        -11.15430       -2.40620        4.06360
H         -7.30260       -2.24090        1.63750
H         -2.67050       -3.22630        2.42880
H         -1.44090       -5.29520        1.88200
H          0.18560       -5.77240        3.61570
H          3.05360       -6.04980        5.91410
H          1.37100       -5.93550        5.38280
H          1.99890       -7.29560        3.31770
H          2.32760       -8.18590        4.80950
H          3.64780       -7.40440        3.93160
H          1.12330       -2.24840        0.29830
H         -5.24170       -1.16780       -2.35400
H         -6.85440       -0.92630       -4.18990
H         -7.26440       -2.45690       -8.88130
H         -6.29010       -3.75430       -8.16810
H         -4.84090       -2.06420       -9.33370
H         -4.50190       -2.07620       -7.60190
H         -5.49560       -0.79110       -8.29350
H         -3.53650       -4.54780       -4.35530
H         -1.82190       -2.74850       -4.61050
H         -1.10540       -3.56820       -6.42110
H         -2.19220       -3.76140       -8.50850
H         -1.10750       -4.13420       -9.86150
H         -1.68440       -2.49320       -9.64060
H          2.90540       -2.85240      -10.86330
H          2.41050       -1.14820      -10.66180
H          1.76820       -2.11020      -12.01540
H          3.07630       -2.13060       -8.65890
H          4.71920       -1.20540       -8.09590
H          5.07840        1.07150       -8.66410
H          4.43710        1.35810      -11.02150
H          6.48630       -1.40600      -13.88030
H          7.48450       -0.16020      -14.67340
H          6.15950       -1.42880      -16.36670
H          5.63890        0.25940      -16.30800
H          4.66240       -0.98970      -15.53220
H          8.77590       -0.68060       -9.92890
H          8.78860        1.40720       -3.18550
H          9.19870        1.14140       -0.77680
H          7.74040       -2.00200        2.68500
H          7.69690       -3.02750        1.23890
H          6.23470       -0.34710        1.55780
H          6.15290       -1.38700        0.13150
H          5.46640       -1.93520        1.66160
H          7.87070       -2.76970       -3.45380
H         10.59770        0.60850       -4.54220
H         12.50440        1.76050       -4.45630
H         16.65000        2.30800       -2.97330
H         16.25680        1.52690       -0.67810
H         12.44140       -0.11540        1.60630
H         11.96380        0.73630        0.13170
H         11.86380        1.88350        2.97540
H         10.46600        1.30200        2.06010
H         11.34230        2.74100        1.52150
H         12.61550        3.73480       -3.12520
H         13.15810        5.41320       -8.94650
H         13.29960        6.01240      -11.29270
H         14.00200        6.26860      -14.90890
H         13.34820        6.67930      -13.31790
H         12.94000        4.20300      -12.90470
H         13.57500        3.85860      -14.51400
H         12.07140        4.77080      -14.33530
H         17.16410        3.90210       -9.07630
H         17.40070        5.87840       -7.60670
H         18.72900        6.23090       -5.39650
