
  xtb     03042213383D
 energy: -160.987338922603 gnorm: 0.000708444598 xtb: 6.4.1 (unknown)
 86 97  0     0  0            999 V2000
    3.4070    2.8690    1.1759 C   0  0  0  0  0  0  0  0  0  0  0  0
    4.6787    3.3454    2.2784 S   0  0  0  0  0  3  0  0  0  0  0  0
    6.1226    2.8663    1.3921 C   0  0  0  0  0  0  0  0  0  0  0  0
    7.3336    3.4511    1.5916 C   0  0  0  0  0  0  0  0  0  0  0  0
    8.5520    2.7780    0.5816 S   0  0  0  0  0  0  0  0  0  0  0  0
    7.4109    1.7100   -0.1352 C   0  0  0  0  0  0  0  0  0  0  0  0
    6.1665    1.8576    0.3930 C   0  0  0  0  0  0  0  0  0  0  0  0
    4.8136    0.8445   -0.0922 S   0  0  0  0  0  3  0  0  0  0  0  0
    3.4091    1.8856    0.2631 C   0  0  0  0  0  0  0  0  0  0  0  0
    2.2740    1.5778   -0.5605 C   0  0  0  0  0  0  0  0  0  0  0  0
    2.5383    0.9274   -2.1397 S   0  0  0  0  0  0  0  0  0  0  0  0
    0.8456    0.8620   -2.4872 C   0  0  0  0  0  0  0  0  0  0  0  0
    0.1062    1.4018   -1.4380 C   0  0  0  0  0  0  0  0  0  0  0  0
    0.9120    1.7421   -0.3086 C   0  0  0  0  0  0  0  0  0  0  0  0
    0.2594    2.0877    0.8974 C   0  0  0  0  0  0  0  0  0  0  0  0
   -1.0961    2.2145    0.9461 C   0  0  0  0  0  0  0  0  0  0  0  0
   -1.8216    2.5292    2.2152 C   0  0  0  0  0  0  0  0  0  0  0  0
   -1.8713    2.0719   -0.2524 C   0  0  0  0  0  0  0  0  0  0  0  0
   -3.1879    2.3711   -0.1127 O   0  0  0  0  0  0  0  0  0  0  0  0
   -3.9926    2.3950   -1.2683 C   0  0  0  0  0  0  0  0  0  0  0  0
   -1.2825    1.6534   -1.4136 C   0  0  0  0  0  0  0  0  0  0  0  0
    0.3642    0.1800   -3.6620 C   0  0  0  0  0  0  0  0  0  0  0  0
    1.2648    0.6214   -5.1273 S   0  0  0  0  0  3  0  0  0  0  0  0
    1.0941   -0.8238   -6.1138 C   0  0  0  0  0  0  0  0  0  0  0  0
    2.0320   -1.2403   -7.0052 C   0  0  0  0  0  0  0  0  0  0  0  0
    1.5282   -2.6464   -7.8584 S   0  0  0  0  0  0  0  0  0  0  0  0
    0.0469   -2.6903   -6.9845 C   0  0  0  0  0  0  0  0  0  0  0  0
   -0.0529   -1.6610   -6.1026 C   0  0  0  0  0  0  0  0  0  0  0  0
   -1.4534   -1.3816   -5.0784 S   0  0  0  0  0  3  0  0  0  0  0  0
   -0.6541   -0.7171   -3.6218 C   0  0  0  0  0  0  0  0  0  0  0  0
   -1.2340   -1.1591   -2.3793 C   0  0  0  0  0  0  0  0  0  0  0  0
   -2.9537   -1.1885   -2.1622 S   0  0  0  0  0  0  0  0  0  0  0  0
   -2.8121   -1.4927   -0.4674 C   0  0  0  0  0  0  0  0  0  0  0  0
   -1.4774   -1.5567   -0.0835 C   0  0  0  0  0  0  0  0  0  0  0  0
   -0.5807   -1.4467   -1.1857 C   0  0  0  0  0  0  0  0  0  0  0  0
    0.7992   -1.6583   -0.9584 C   0  0  0  0  0  0  0  0  0  0  0  0
    1.2813   -1.7928    0.3072 C   0  0  0  0  0  0  0  0  0  0  0  0
    2.7319   -2.0042    0.5889 C   0  0  0  0  0  0  0  0  0  0  0  0
    0.3841   -1.6924    1.4233 C   0  0  0  0  0  0  0  0  0  0  0  0
    0.9888   -1.6934    2.6403 O   0  0  0  0  0  0  0  0  0  0  0  0
    0.2008   -1.4093    3.7709 C   0  0  0  0  0  0  0  0  0  0  0  0
   -0.9661   -1.6197    1.2305 C   0  0  0  0  0  0  0  0  0  0  0  0
   -3.9424   -1.6813    0.4072 C   0  0  0  0  0  0  0  0  0  0  0  0
   -5.1924   -0.4013    0.3521 S   0  0  0  0  0  3  0  0  0  0  0  0
   -5.2904   -0.0935    2.0798 C   0  0  0  0  0  0  0  0  0  0  0  0
   -5.3912    1.1396    2.6413 C   0  0  0  0  0  0  0  0  0  0  0  0
   -5.4984    1.0511    4.3571 S   0  0  0  0  0  0  0  0  0  0  0  0
   -5.3693   -0.6646    4.3179 C   0  0  0  0  0  0  0  0  0  0  0  0
   -5.2726   -1.1343    3.0463 C   0  0  0  0  0  0  0  0  0  0  0  0
   -5.1473   -2.8391    2.6163 S   0  0  0  0  0  3  0  0  0  0  0  0
   -3.9958   -2.7137    1.2756 C   0  0  0  0  0  0  0  0  0  0  0  0
   -3.0682   -3.8370    1.1783 C   0  0  0  0  0  0  0  0  0  0  0  0
   -2.3581   -4.3396    2.7341 S   0  0  0  0  0  3  0  0  0  0  0  0
   -0.7663   -4.8732    2.1994 C   0  0  0  0  0  0  0  0  0  0  0  0
    0.3318   -4.8234    2.9999 C   0  0  0  0  0  0  0  0  0  0  0  0
    1.7388   -5.4106    2.2082 S   0  0  0  0  0  0  0  0  0  0  0  0
    0.8429   -5.7200    0.7751 C   0  0  0  0  0  0  0  0  0  0  0  0
   -0.4710   -5.4012    0.9148 C   0  0  0  0  0  0  0  0  0  0  0  0
   -1.6485   -5.6577   -0.3697 S   0  0  0  0  0  3  0  0  0  0  0  0
   -2.8185   -4.4202    0.0022 C   0  0  0  0  0  0  0  0  0  0  0  0
    2.5350    3.4903    1.2995 H   0  0  0  0  0  0  0  0  0  0  0  0
    7.5752    4.2301    2.2853 H   0  0  0  0  0  0  0  0  0  0  0  0
    7.7170    1.0197   -0.8943 H   0  0  0  0  0  0  0  0  0  0  0  0
    0.8418    2.2159    1.7968 H   0  0  0  0  0  0  0  0  0  0  0  0
   -2.3674    3.4658    2.1125 H   0  0  0  0  0  0  0  0  0  0  0  0
   -1.1307    2.6086    3.0504 H   0  0  0  0  0  0  0  0  0  0  0  0
   -2.5549    1.7512    2.4262 H   0  0  0  0  0  0  0  0  0  0  0  0
   -4.0691    1.4068   -1.7302 H   0  0  0  0  0  0  0  0  0  0  0  0
   -3.6099    3.1115   -2.0018 H   0  0  0  0  0  0  0  0  0  0  0  0
   -4.9808    2.7067   -0.9346 H   0  0  0  0  0  0  0  0  0  0  0  0
   -1.8459    1.5147   -2.3211 H   0  0  0  0  0  0  0  0  0  0  0  0
    2.9792   -0.7880   -7.2167 H   0  0  0  0  0  0  0  0  0  0  0  0
   -0.6762   -3.4550   -7.1817 H   0  0  0  0  0  0  0  0  0  0  0  0
    1.4684   -1.7204   -1.8027 H   0  0  0  0  0  0  0  0  0  0  0  0
    3.0973   -1.2210    1.2507 H   0  0  0  0  0  0  0  0  0  0  0  0
    3.3121   -1.9947   -0.3294 H   0  0  0  0  0  0  0  0  0  0  0  0
    2.8824   -2.9537    1.1009 H   0  0  0  0  0  0  0  0  0  0  0  0
   -0.2921   -0.4364    3.6733 H   0  0  0  0  0  0  0  0  0  0  0  0
   -0.5573   -2.1792    3.9449 H   0  0  0  0  0  0  0  0  0  0  0  0
    0.8907   -1.3854    4.6130 H   0  0  0  0  0  0  0  0  0  0  0  0
   -1.6579   -1.5790    2.0558 H   0  0  0  0  0  0  0  0  0  0  0  0
   -5.4236    2.0854    2.1407 H   0  0  0  0  0  0  0  0  0  0  0  0
   -5.3894   -1.2308    5.2265 H   0  0  0  0  0  0  0  0  0  0  0  0
    0.3885   -4.4933    4.0167 H   0  0  0  0  0  0  0  0  0  0  0  0
    1.3234   -6.1341   -0.0875 H   0  0  0  0  0  0  0  0  0  0  0  0
   -3.3613   -4.1122   -0.8780 H   0  0  0  0  0  0  0  0  0  0  0  0
  1  2  2  0  0  0  0
  2  3  1  0  0  0  0
  3  4  2  0  0  0  0
  4  5  1  0  0  0  0
  5  6  1  0  0  0  0
  6  7  2  0  0  0  0
  7  8  1  0  0  0  0
  8  9  2  0  0  0  0
  9 10  1  0  0  0  0
 10 11  1  0  0  0  0
 11 12  1  0  0  0  0
 12 13  2  0  0  0  0
 13 14  1  0  0  0  0
 14 15  1  0  0  0  0
 15 16  2  0  0  0  0
 16 17  1  0  0  0  0
 16 18  1  0  0  0  0
 18 19  1  0  0  0  0
 19 20  1  0  0  0  0
 18 21  2  0  0  0  0
 12 22  1  0  0  0  0
 22 23  2  0  0  0  0
 23 24  1  0  0  0  0
 24 25  2  0  0  0  0
 25 26  1  0  0  0  0
 26 27  1  0  0  0  0
 27 28  2  0  0  0  0
 28 29  1  0  0  0  0
 29 30  2  0  0  0  0
 30 31  1  0  0  0  0
 31 32  1  0  0  0  0
 32 33  1  0  0  0  0
 33 34  2  0  0  0  0
 34 35  1  0  0  0  0
 35 36  1  0  0  0  0
 36 37  2  0  0  0  0
 37 38  1  0  0  0  0
 37 39  1  0  0  0  0
 39 40  1  0  0  0  0
 40 41  1  0  0  0  0
 39 42  2  0  0  0  0
 33 43  1  0  0  0  0
 43 44  2  0  0  0  0
 44 45  1  0  0  0  0
 45 46  2  0  0  0  0
 46 47  1  0  0  0  0
 47 48  1  0  0  0  0
 48 49  2  0  0  0  0
 49 50  1  0  0  0  0
 50 51  2  0  0  0  0
 51 52  1  0  0  0  0
 52 53  2  0  0  0  0
 53 54  1  0  0  0  0
 54 55  2  0  0  0  0
 55 56  1  0  0  0  0
 56 57  1  0  0  0  0
 57 58  2  0  0  0  0
 58 59  1  0  0  0  0
 59 60  2  0  0  0  0
  9  1  1  0  0  0  0
 14 10  2  0  0  0  0
 30 22  1  0  0  0  0
 35 31  2  0  0  0  0
 51 43  1  0  0  0  0
 60 52  1  0  0  0  0
  7  3  1  0  0  0  0
 21 13  1  0  0  0  0
 28 24  1  0  0  0  0
 42 34  1  0  0  0  0
 49 45  1  0  0  0  0
 58 54  1  0  0  0  0
  1 61  1  0  0  0  0
  4 62  1  0  0  0  0
  6 63  1  0  0  0  0
 15 64  1  0  0  0  0
 17 65  1  0  0  0  0
 17 66  1  0  0  0  0
 17 67  1  0  0  0  0
 20 68  1  0  0  0  0
 20 69  1  0  0  0  0
 20 70  1  0  0  0  0
 21 71  1  0  0  0  0
 25 72  1  0  0  0  0
 27 73  1  0  0  0  0
 36 74  1  0  0  0  0
 38 75  1  0  0  0  0
 38 76  1  0  0  0  0
 38 77  1  0  0  0  0
 41 78  1  0  0  0  0
 41 79  1  0  0  0  0
 41 80  1  0  0  0  0
 42 81  1  0  0  0  0
 46 82  1  0  0  0  0
 48 83  1  0  0  0  0
 55 84  1  0  0  0  0
 57 85  1  0  0  0  0
 60 86  1  0  0  0  0
M  END
