
  xtb     03042201033D
 energy: -361.527622915195 gnorm: 0.000331627914 xtb: 6.4.1 (unknown)
212232  0     0  0            999 V2000
   10.7095   -0.8650    8.7195 C   0  0  0  0  0  0  0  0  0  0  0  0
    9.3989   -0.7977    7.6326 S   0  0  0  0  0  0  0  0  0  0  0  0
    8.8633   -2.4002    8.0543 C   0  0  0  0  0  0  0  0  0  0  0  0
    9.7039   -2.9526    9.0225 C   0  0  0  0  0  0  0  0  0  0  0  0
   10.7631   -2.0613    9.3970 C   0  0  0  0  0  0  0  0  0  0  0  0
   11.7092   -2.4682   10.3696 C   0  0  0  0  0  0  0  0  0  0  0  0
   11.6222   -3.6950   10.9493 C   0  0  0  0  0  0  0  0  0  0  0  0
   12.5981   -4.1641   11.9800 C   0  0  0  0  0  0  0  0  0  0  0  0
   10.5616   -4.5840   10.5686 C   0  0  0  0  0  0  0  0  0  0  0  0
   10.5761   -5.7827   11.2115 O   0  0  0  0  0  0  0  0  0  0  0  0
    9.5720   -6.7199   10.9086 C   0  0  0  0  0  0  0  0  0  0  0  0
    9.6310   -4.2219    9.6330 C   0  0  0  0  0  0  0  0  0  0  0  0
    7.7125   -2.9239    7.4064 C   0  0  0  0  0  0  0  0  0  0  0  0
    6.9864   -2.3155    6.4185 C   0  0  0  0  0  0  0  0  0  0  0  0
    5.8822   -3.0701    5.9574 C   0  0  0  0  0  0  0  0  0  0  0  0
    4.9431   -2.7299    4.9685 C   0  0  0  0  0  0  0  0  0  0  0  0
    4.9597   -1.4258    4.2932 C   0  0  0  0  0  0  0  0  0  0  0  0
    4.9089   -1.3336    2.9031 C   0  0  0  0  0  0  0  0  0  0  0  0
    4.8765   -0.1051    2.2782 C   0  0  0  0  0  0  0  0  0  0  0  0
    4.8953    1.0766    3.0151 C   0  0  0  0  0  0  0  0  0  0  0  0
    4.8708    2.6071    2.1345 S   0  0  0  0  0  0  0  0  0  0  0  0
    3.7574    3.6508    3.1618 C   0  0  0  0  0  0  0  0  0  0  0  0
    3.0489    4.6507    2.2697 C   0  0  0  0  0  0  0  0  0  0  0  0
    4.9742    0.9724    4.4004 C   0  0  0  0  0  0  0  0  0  0  0  0
    5.0304    2.0816    5.1735 F   0  0  0  0  0  0  0  0  0  0  0  0
    4.9960   -0.2510    5.0381 C   0  0  0  0  0  0  0  0  0  0  0  0
    3.9758   -3.6787    4.6784 C   0  0  0  0  0  0  0  0  0  0  0  0
    3.8694   -4.9256    5.3444 C   0  0  0  0  0  0  0  0  0  0  0  0
    4.7962   -5.2554    6.3490 C   0  0  0  0  0  0  0  0  0  0  0  0
    4.7128   -6.5073    7.1103 C   0  0  0  0  0  0  0  0  0  0  0  0
    3.5270   -6.8967    7.7317 C   0  0  0  0  0  0  0  0  0  0  0  0
    3.4798   -8.0403    8.5001 C   0  0  0  0  0  0  0  0  0  0  0  0
    4.6036   -8.8458    8.6715 C   0  0  0  0  0  0  0  0  0  0  0  0
    4.4271  -10.2973    9.6691 S   0  0  0  0  0  0  0  0  0  0  0  0
    5.9773  -10.3424   10.6432 C   0  0  0  0  0  0  0  0  0  0  0  0
    6.2003   -9.0601   11.4197 C   0  0  0  0  0  0  0  0  0  0  0  0
    5.7689   -8.4667    8.0133 C   0  0  0  0  0  0  0  0  0  0  0  0
    5.8362   -7.3143    7.2582 C   0  0  0  0  0  0  0  0  0  0  0  0
    6.8882   -9.2219    8.0948 F   0  0  0  0  0  0  0  0  0  0  0  0
    5.7869   -4.3233    6.6104 C   0  0  0  0  0  0  0  0  0  0  0  0
    7.0419   -4.4971    7.8090 S   0  0  0  0  0  0  0  0  0  0  0  0
    2.7896   -5.7037    4.8595 C   0  0  0  0  0  0  0  0  0  0  0  0
    2.0627   -5.0886    3.8773 C   0  0  0  0  0  0  0  0  0  0  0  0
    2.7051   -3.4902    3.5047 S   0  0  0  0  0  0  0  0  0  0  0  0
    0.9175   -5.5011    3.1443 C   0  0  0  0  0  0  0  0  0  0  0  0
    0.0944   -4.2813    2.2341 S   0  0  0  0  0  0  0  0  0  0  0  0
   -1.0875   -5.3913    1.6176 C   0  0  0  0  0  0  0  0  0  0  0  0
   -0.8221   -6.6863    2.0783 C   0  0  0  0  0  0  0  0  0  0  0  0
    0.3032   -6.7466    2.9610 C   0  0  0  0  0  0  0  0  0  0  0  0
    0.6878   -8.0026    3.4764 C   0  0  0  0  0  0  0  0  0  0  0  0
    0.0177   -9.1411    3.1354 C   0  0  0  0  0  0  0  0  0  0  0  0
    0.4079  -10.4802    3.6723 C   0  0  0  0  0  0  0  0  0  0  0  0
   -1.0717   -9.0740    2.2119 C   0  0  0  0  0  0  0  0  0  0  0  0
   -1.6352  -10.2754    1.9104 O   0  0  0  0  0  0  0  0  0  0  0  0
   -2.7077  -10.3032    1.0018 C   0  0  0  0  0  0  0  0  0  0  0  0
   -1.4719   -7.8739    1.6868 C   0  0  0  0  0  0  0  0  0  0  0  0
   -2.0552   -4.8609    0.7285 C   0  0  0  0  0  0  0  0  0  0  0  0
   -1.5614   -3.4934   -0.2171 S   0  0  0  0  0  0  0  0  0  0  0  0
   -3.1202   -3.3202   -0.9654 C   0  0  0  0  0  0  0  0  0  0  0  0
   -3.9934   -4.3087   -0.4997 C   0  0  0  0  0  0  0  0  0  0  0  0
   -3.3991   -5.1637    0.4821 C   0  0  0  0  0  0  0  0  0  0  0  0
   -4.2147   -6.1054    1.1449 C   0  0  0  0  0  0  0  0  0  0  0  0
   -5.5249   -6.2643    0.8008 C   0  0  0  0  0  0  0  0  0  0  0  0
   -6.4103   -7.2536    1.4885 C   0  0  0  0  0  0  0  0  0  0  0  0
   -6.0888   -5.4594   -0.2394 C   0  0  0  0  0  0  0  0  0  0  0  0
   -7.3933   -5.7215   -0.5123 O   0  0  0  0  0  0  0  0  0  0  0  0
   -8.0434   -4.9483   -1.4926 C   0  0  0  0  0  0  0  0  0  0  0  0
   -5.3423   -4.4931   -0.8612 C   0  0  0  0  0  0  0  0  0  0  0  0
   -3.2932   -2.2126   -1.8297 C   0  0  0  0  0  0  0  0  0  0  0  0
   -2.3493   -1.2387   -2.0292 C   0  0  0  0  0  0  0  0  0  0  0  0
   -2.7551   -0.1979   -2.8881 C   0  0  0  0  0  0  0  0  0  0  0  0
   -2.0162    0.9444   -3.2471 C   0  0  0  0  0  0  0  0  0  0  0  0
   -0.6333    1.1042   -2.7826 C   0  0  0  0  0  0  0  0  0  0  0  0
    0.2965    0.0797   -2.9611 C   0  0  0  0  0  0  0  0  0  0  0  0
    1.5833    0.2084   -2.4882 C   0  0  0  0  0  0  0  0  0  0  0  0
    1.9967    1.3512   -1.8036 C   0  0  0  0  0  0  0  0  0  0  0  0
    3.6453    1.3432   -1.1676 S   0  0  0  0  0  0  0  0  0  0  0  0
    4.2312    3.0638   -1.3609 C   0  0  0  0  0  0  0  0  0  0  0  0
    4.1859    3.5190   -2.8050 C   0  0  0  0  0  0  0  0  0  0  0  0
    1.0562    2.3616   -1.6286 C   0  0  0  0  0  0  0  0  0  0  0  0
    1.3642    3.4851   -0.9403 F   0  0  0  0  0  0  0  0  0  0  0  0
   -0.2292    2.2588   -2.1222 C   0  0  0  0  0  0  0  0  0  0  0  0
   -2.6703    1.8807   -4.0287 C   0  0  0  0  0  0  0  0  0  0  0  0
   -3.9928    1.6921   -4.5008 C   0  0  0  0  0  0  0  0  0  0  0  0
   -4.7146    0.5252   -4.1845 C   0  0  0  0  0  0  0  0  0  0  0  0
   -6.0653    0.3354   -4.7261 C   0  0  0  0  0  0  0  0  0  0  0  0
   -6.3102    0.5338   -6.0830 C   0  0  0  0  0  0  0  0  0  0  0  0
   -7.5854    0.4456   -6.6052 C   0  0  0  0  0  0  0  0  0  0  0  0
   -8.6672    0.1419   -5.7872 C   0  0  0  0  0  0  0  0  0  0  0  0
  -10.3524    0.0743   -6.2999 S   0  0  0  0  0  0  0  0  0  0  0  0
  -10.2838    0.1993   -8.1213 C   0  0  0  0  0  0  0  0  0  0  0  0
   -9.8099   -1.0866   -8.7717 C   0  0  0  0  0  0  0  0  0  0  0  0
   -8.4022   -0.0956   -4.4371 C   0  0  0  0  0  0  0  0  0  0  0  0
   -7.1364   -0.0037   -3.9029 C   0  0  0  0  0  0  0  0  0  0  0  0
   -9.4260   -0.4103   -3.6159 F   0  0  0  0  0  0  0  0  0  0  0  0
   -4.0819   -0.3815   -3.3536 C   0  0  0  0  0  0  0  0  0  0  0  0
   -4.7555   -1.8748   -2.7428 S   0  0  0  0  0  0  0  0  0  0  0  0
   -4.4439    2.8042   -5.2477 C   0  0  0  0  0  0  0  0  0  0  0  0
   -3.5140    3.7912   -5.3874 C   0  0  0  0  0  0  0  0  0  0  0  0
   -2.0079    3.4015   -4.5809 S   0  0  0  0  0  0  0  0  0  0  0  0
   -3.7072    5.0151   -6.0896 C   0  0  0  0  0  0  0  0  0  0  0  0
   -2.8524    6.0568   -6.2854 C   0  0  0  0  0  0  0  0  0  0  0  0
   -3.4168    7.1170   -7.0457 C   0  0  0  0  0  0  0  0  0  0  0  0
   -2.8321    8.3389   -7.4141 C   0  0  0  0  0  0  0  0  0  0  0  0
   -1.4846    8.7033   -6.9608 C   0  0  0  0  0  0  0  0  0  0  0  0
   -1.1389    8.6121   -5.6128 C   0  0  0  0  0  0  0  0  0  0  0  0
    0.1203    8.9723   -5.1848 C   0  0  0  0  0  0  0  0  0  0  0  0
    1.0892    9.4227   -6.0796 C   0  0  0  0  0  0  0  0  0  0  0  0
    2.6852    9.8065   -5.4204 S   0  0  0  0  0  0  0  0  0  0  0  0
    3.1913   11.3114   -6.3322 C   0  0  0  0  0  0  0  0  0  0  0  0
    2.1883   12.4359   -6.1719 C   0  0  0  0  0  0  0  0  0  0  0  0
    0.7381    9.4844   -7.4246 C   0  0  0  0  0  0  0  0  0  0  0  0
    1.6366    9.8689   -8.3576 F   0  0  0  0  0  0  0  0  0  0  0  0
   -0.5271    9.1513   -7.8641 C   0  0  0  0  0  0  0  0  0  0  0  0
   -3.6022    9.1876   -8.1994 C   0  0  0  0  0  0  0  0  0  0  0  0
   -4.9308    8.8949   -8.5935 C   0  0  0  0  0  0  0  0  0  0  0  0
   -5.5223    7.6853   -8.2092 C   0  0  0  0  0  0  0  0  0  0  0  0
   -6.9142    7.3226   -8.5079 C   0  0  0  0  0  0  0  0  0  0  0  0
   -7.9735    8.1583   -8.1601 C   0  0  0  0  0  0  0  0  0  0  0  0
   -9.2771    7.7293   -8.2962 C   0  0  0  0  0  0  0  0  0  0  0  0
   -9.5768    6.4630   -8.7949 C   0  0  0  0  0  0  0  0  0  0  0  0
  -11.2797    5.9925   -8.8818 S   0  0  0  0  0  0  0  0  0  0  0  0
  -11.2742    4.2368   -8.3524 C   0  0  0  0  0  0  0  0  0  0  0  0
  -10.6154    4.0404   -7.0019 C   0  0  0  0  0  0  0  0  0  0  0  0
   -8.5109    5.6709   -9.2089 C   0  0  0  0  0  0  0  0  0  0  0  0
   -7.2017    6.0772   -9.0579 C   0  0  0  0  0  0  0  0  0  0  0  0
   -8.7243    4.4560   -9.7644 F   0  0  0  0  0  0  0  0  0  0  0  0
   -4.7381    6.8223   -7.4589 C   0  0  0  0  0  0  0  0  0  0  0  0
   -5.2651    5.2774   -6.8530 S   0  0  0  0  0  0  0  0  0  0  0  0
   -5.4923    9.9426   -9.3821 C   0  0  0  0  0  0  0  0  0  0  0  0
   -4.6470   10.9782   -9.5548 C   0  0  0  0  0  0  0  0  0  0  0  0
   -3.1129   10.7581   -8.7838 S   0  0  0  0  0  0  0  0  0  0  0  0
   11.3723   -0.0274    8.8061 H   0  0  0  0  0  0  0  0  0  0  0  0
   12.5008   -1.7861   10.6418 H   0  0  0  0  0  0  0  0  0  0  0  0
   13.3483   -3.4034   12.1771 H   0  0  0  0  0  0  0  0  0  0  0  0
   13.0895   -5.0748   11.6412 H   0  0  0  0  0  0  0  0  0  0  0  0
   12.0765   -4.4032   12.9054 H   0  0  0  0  0  0  0  0  0  0  0  0
    8.5763   -6.3317   11.1468 H   0  0  0  0  0  0  0  0  0  0  0  0
    9.7811   -7.5872   11.5329 H   0  0  0  0  0  0  0  0  0  0  0  0
    9.6009   -7.0164    9.8555 H   0  0  0  0  0  0  0  0  0  0  0  0
    8.8401   -4.8939    9.3511 H   0  0  0  0  0  0  0  0  0  0  0  0
    7.2529   -1.3531    6.0192 H   0  0  0  0  0  0  0  0  0  0  0  0
    4.9011   -2.2329    2.3071 H   0  0  0  0  0  0  0  0  0  0  0  0
    4.8244   -0.0372    1.2026 H   0  0  0  0  0  0  0  0  0  0  0  0
    4.3599    4.1525    3.9181 H   0  0  0  0  0  0  0  0  0  0  0  0
    3.0466    2.9799    3.6416 H   0  0  0  0  0  0  0  0  0  0  0  0
    3.7704    5.2840    1.7578 H   0  0  0  0  0  0  0  0  0  0  0  0
    2.4439    4.1400    1.5243 H   0  0  0  0  0  0  0  0  0  0  0  0
    2.3980    5.2820    2.8713 H   0  0  0  0  0  0  0  0  0  0  0  0
    5.0273   -0.2755    6.1165 H   0  0  0  0  0  0  0  0  0  0  0  0
    2.6489   -6.2756    7.6416 H   0  0  0  0  0  0  0  0  0  0  0  0
    2.5655   -8.3285    8.9955 H   0  0  0  0  0  0  0  0  0  0  0  0
    5.8243  -11.1873   11.3145 H   0  0  0  0  0  0  0  0  0  0  0  0
    6.8080  -10.5645    9.9769 H   0  0  0  0  0  0  0  0  0  0  0  0
    6.3548   -8.2195   10.7454 H   0  0  0  0  0  0  0  0  0  0  0  0
    7.0825   -9.1616   12.0486 H   0  0  0  0  0  0  0  0  0  0  0  0
    5.3420   -8.8426   12.0521 H   0  0  0  0  0  0  0  0  0  0  0  0
    6.7655   -7.0707    6.7676 H   0  0  0  0  0  0  0  0  0  0  0  0
    2.5652   -6.6792    5.2468 H   0  0  0  0  0  0  0  0  0  0  0  0
    1.5365   -8.0699    4.1365 H   0  0  0  0  0  0  0  0  0  0  0  0
    1.2523  -10.3963    4.3509 H   0  0  0  0  0  0  0  0  0  0  0  0
    0.6699  -11.1482    2.8534 H   0  0  0  0  0  0  0  0  0  0  0  0
   -0.4323  -10.9301    4.1988 H   0  0  0  0  0  0  0  0  0  0  0  0
   -3.5554   -9.7100    1.3601 H   0  0  0  0  0  0  0  0  0  0  0  0
   -3.0041  -11.3482    0.9273 H   0  0  0  0  0  0  0  0  0  0  0  0
   -2.4073   -9.9405    0.0135 H   0  0  0  0  0  0  0  0  0  0  0  0
   -2.2534   -7.8122    0.9491 H   0  0  0  0  0  0  0  0  0  0  0  0
   -3.7999   -6.6786    1.9593 H   0  0  0  0  0  0  0  0  0  0  0  0
   -7.2802   -6.7492    1.9054 H   0  0  0  0  0  0  0  0  0  0  0  0
   -5.8765   -7.7639    2.2859 H   0  0  0  0  0  0  0  0  0  0  0  0
   -6.7767   -7.9882    0.7725 H   0  0  0  0  0  0  0  0  0  0  0  0
   -8.0594   -3.8880   -1.2231 H   0  0  0  0  0  0  0  0  0  0  0  0
   -7.5714   -5.0638   -2.4732 H   0  0  0  0  0  0  0  0  0  0  0  0
   -9.0640   -5.3248   -1.5357 H   0  0  0  0  0  0  0  0  0  0  0  0
   -5.7663   -3.8574   -1.6195 H   0  0  0  0  0  0  0  0  0  0  0  0
   -1.3956   -1.2551   -1.5329 H   0  0  0  0  0  0  0  0  0  0  0  0
    0.0093   -0.8132   -3.4953 H   0  0  0  0  0  0  0  0  0  0  0  0
    2.3002   -0.5847   -2.6327 H   0  0  0  0  0  0  0  0  0  0  0  0
    3.6512    3.7111   -0.7082 H   0  0  0  0  0  0  0  0  0  0  0  0
    5.2540    3.0178   -0.9874 H   0  0  0  0  0  0  0  0  0  0  0  0
    3.1607    3.5580   -3.1692 H   0  0  0  0  0  0  0  0  0  0  0  0
    4.7520    2.8393   -3.4387 H   0  0  0  0  0  0  0  0  0  0  0  0
    4.6161    4.5150   -2.8879 H   0  0  0  0  0  0  0  0  0  0  0  0
   -0.9178    3.0705   -1.9458 H   0  0  0  0  0  0  0  0  0  0  0  0
   -5.4865    0.7538   -6.7452 H   0  0  0  0  0  0  0  0  0  0  0  0
   -7.7272    0.6299   -7.6574 H   0  0  0  0  0  0  0  0  0  0  0  0
  -11.3157    0.4144   -8.3993 H   0  0  0  0  0  0  0  0  0  0  0  0
   -9.6677    1.0563   -8.3899 H   0  0  0  0  0  0  0  0  0  0  0  0
   -9.8094   -0.9740   -9.8542 H   0  0  0  0  0  0  0  0  0  0  0  0
  -10.4729   -1.9069   -8.5071 H   0  0  0  0  0  0  0  0  0  0  0  0
   -8.8035   -1.3428   -8.4481 H   0  0  0  0  0  0  0  0  0  0  0  0
   -6.9995   -0.1683   -2.8460 H   0  0  0  0  0  0  0  0  0  0  0  0
   -5.4367    2.8886   -5.6523 H   0  0  0  0  0  0  0  0  0  0  0  0
   -1.8447    6.0586   -5.9100 H   0  0  0  0  0  0  0  0  0  0  0  0
   -1.8757    8.2875   -4.8939 H   0  0  0  0  0  0  0  0  0  0  0  0
    0.3799    8.9125   -4.1393 H   0  0  0  0  0  0  0  0  0  0  0  0
    4.1471   11.5683   -5.8753 H   0  0  0  0  0  0  0  0  0  0  0  0
    3.3550   11.0559   -7.3767 H   0  0  0  0  0  0  0  0  0  0  0  0
    1.2349   12.1743   -6.6274 H   0  0  0  0  0  0  0  0  0  0  0  0
    2.5651   13.3340   -6.6570 H   0  0  0  0  0  0  0  0  0  0  0  0
    2.0206   12.6508   -5.1185 H   0  0  0  0  0  0  0  0  0  0  0  0
   -0.7407    9.2131   -8.9197 H   0  0  0  0  0  0  0  0  0  0  0  0
   -7.7697    9.1293   -7.7350 H   0  0  0  0  0  0  0  0  0  0  0  0
  -10.0951    8.3649   -7.9945 H   0  0  0  0  0  0  0  0  0  0  0  0
  -12.3356    3.9923   -8.3094 H   0  0  0  0  0  0  0  0  0  0  0  0
  -10.8045    3.6377   -9.1299 H   0  0  0  0  0  0  0  0  0  0  0  0
  -10.7488    3.0112   -6.6737 H   0  0  0  0  0  0  0  0  0  0  0  0
   -9.5484    4.2515   -7.0505 H   0  0  0  0  0  0  0  0  0  0  0  0
  -11.0628    4.6989   -6.2604 H   0  0  0  0  0  0  0  0  0  0  0  0
   -6.4138    5.4181   -9.3873 H   0  0  0  0  0  0  0  0  0  0  0  0
   -6.4814    9.8981   -9.8007 H   0  0  0  0  0  0  0  0  0  0  0  0
   -4.8163   11.8843  -10.1031 H   0  0  0  0  0  0  0  0  0  0  0  0
  1  2  1  0  0  0  0
  2  3  1  0  0  0  0
  3  4  2  0  0  0  0
  4  5  1  0  0  0  0
  5  6  1  0  0  0  0
  6  7  2  0  0  0  0
  7  8  1  0  0  0  0
  7  9  1  0  0  0  0
  9 10  1  0  0  0  0
 10 11  1  0  0  0  0
  9 12  2  0  0  0  0
  3 13  1  0  0  0  0
 13 14  2  0  0  0  0
 14 15  1  0  0  0  0
 15 16  2  0  0  0  0
 16 17  1  0  0  0  0
 17 18  2  0  0  0  0
 18 19  1  0  0  0  0
 19 20  2  0  0  0  0
 20 21  1  0  0  0  0
 21 22  1  0  0  0  0
 22 23  1  0  0  0  0
 20 24  1  0  0  0  0
 24 25  1  0  0  0  0
 24 26  2  0  0  0  0
 16 27  1  0  0  0  0
 27 28  2  0  0  0  0
 28 29  1  0  0  0  0
 29 30  1  0  0  0  0
 30 31  2  0  0  0  0
 31 32  1  0  0  0  0
 32 33  2  0  0  0  0
 33 34  1  0  0  0  0
 34 35  1  0  0  0  0
 35 36  1  0  0  0  0
 33 37  1  0  0  0  0
 37 38  2  0  0  0  0
 37 39  1  0  0  0  0
 29 40  2  0  0  0  0
 40 41  1  0  0  0  0
 28 42  1  0  0  0  0
 42 43  2  0  0  0  0
 43 44  1  0  0  0  0
 43 45  1  0  0  0  0
 45 46  1  0  0  0  0
 46 47  1  0  0  0  0
 47 48  2  0  0  0  0
 48 49  1  0  0  0  0
 49 50  1  0  0  0  0
 50 51  2  0  0  0  0
 51 52  1  0  0  0  0
 51 53  1  0  0  0  0
 53 54  1  0  0  0  0
 54 55  1  0  0  0  0
 53 56  2  0  0  0  0
 47 57  1  0  0  0  0
 57 58  1  0  0  0  0
 58 59  1  0  0  0  0
 59 60  2  0  0  0  0
 60 61  1  0  0  0  0
 61 62  1  0  0  0  0
 62 63  2  0  0  0  0
 63 64  1  0  0  0  0
 63 65  1  0  0  0  0
 65 66  1  0  0  0  0
 66 67  1  0  0  0  0
 65 68  2  0  0  0  0
 59 69  1  0  0  0  0
 69 70  2  0  0  0  0
 70 71  1  0  0  0  0
 71 72  2  0  0  0  0
 72 73  1  0  0  0  0
 73 74  2  0  0  0  0
 74 75  1  0  0  0  0
 75 76  2  0  0  0  0
 76 77  1  0  0  0  0
 77 78  1  0  0  0  0
 78 79  1  0  0  0  0
 76 80  1  0  0  0  0
 80 81  1  0  0  0  0
 80 82  2  0  0  0  0
 72 83  1  0  0  0  0
 83 84  2  0  0  0  0
 84 85  1  0  0  0  0
 85 86  1  0  0  0  0
 86 87  2  0  0  0  0
 87 88  1  0  0  0  0
 88 89  2  0  0  0  0
 89 90  1  0  0  0  0
 90 91  1  0  0  0  0
 91 92  1  0  0  0  0
 89 93  1  0  0  0  0
 93 94  2  0  0  0  0
 93 95  1  0  0  0  0
 85 96  2  0  0  0  0
 96 97  1  0  0  0  0
 84 98  1  0  0  0  0
 98 99  2  0  0  0  0
 99100  1  0  0  0  0
 99101  1  0  0  0  0
101102  2  0  0  0  0
102103  1  0  0  0  0
103104  2  0  0  0  0
104105  1  0  0  0  0
105106  2  0  0  0  0
106107  1  0  0  0  0
107108  2  0  0  0  0
108109  1  0  0  0  0
109110  1  0  0  0  0
110111  1  0  0  0  0
108112  1  0  0  0  0
112113  1  0  0  0  0
112114  2  0  0  0  0
104115  1  0  0  0  0
115116  2  0  0  0  0
116117  1  0  0  0  0
117118  1  0  0  0  0
118119  2  0  0  0  0
119120  1  0  0  0  0
120121  2  0  0  0  0
121122  1  0  0  0  0
122123  1  0  0  0  0
123124  1  0  0  0  0
121125  1  0  0  0  0
125126  2  0  0  0  0
125127  1  0  0  0  0
117128  2  0  0  0  0
128129  1  0  0  0  0
116130  1  0  0  0  0
130131  2  0  0  0  0
131132  1  0  0  0  0
  5  1  2  0  0  0  0
 41 13  1  0  0  0  0
 49 45  2  0  0  0  0
 61 57  2  0  0  0  0
 97 69  1  0  0  0  0
129101  1  0  0  0  0
 12  4  1  0  0  0  0
 40 15  1  0  0  0  0
 56 48  1  0  0  0  0
 68 60  1  0  0  0  0
 96 71  1  0  0  0  0
128103  1  0  0  0  0
 26 17  1  0  0  0  0
 44 27  1  0  0  0  0
 82 73  1  0  0  0  0
100 83  1  0  0  0  0
114105  1  0  0  0  0
132115  1  0  0  0  0
 38 30  1  0  0  0  0
 94 86  1  0  0  0  0
126118  1  0  0  0  0
  1133  1  0  0  0  0
  6134  1  0  0  0  0
  8135  1  0  0  0  0
  8136  1  0  0  0  0
  8137  1  0  0  0  0
 11138  1  0  0  0  0
 11139  1  0  0  0  0
 11140  1  0  0  0  0
 12141  1  0  0  0  0
 14142  1  0  0  0  0
 18143  1  0  0  0  0
 19144  1  0  0  0  0
 22145  1  0  0  0  0
 22146  1  0  0  0  0
 23147  1  0  0  0  0
 23148  1  0  0  0  0
 23149  1  0  0  0  0
 26150  1  0  0  0  0
 31151  1  0  0  0  0
 32152  1  0  0  0  0
 35153  1  0  0  0  0
 35154  1  0  0  0  0
 36155  1  0  0  0  0
 36156  1  0  0  0  0
 36157  1  0  0  0  0
 38158  1  0  0  0  0
 42159  1  0  0  0  0
 50160  1  0  0  0  0
 52161  1  0  0  0  0
 52162  1  0  0  0  0
 52163  1  0  0  0  0
 55164  1  0  0  0  0
 55165  1  0  0  0  0
 55166  1  0  0  0  0
 56167  1  0  0  0  0
 62168  1  0  0  0  0
 64169  1  0  0  0  0
 64170  1  0  0  0  0
 64171  1  0  0  0  0
 67172  1  0  0  0  0
 67173  1  0  0  0  0
 67174  1  0  0  0  0
 68175  1  0  0  0  0
 70176  1  0  0  0  0
 74177  1  0  0  0  0
 75178  1  0  0  0  0
 78179  1  0  0  0  0
 78180  1  0  0  0  0
 79181  1  0  0  0  0
 79182  1  0  0  0  0
 79183  1  0  0  0  0
 82184  1  0  0  0  0
 87185  1  0  0  0  0
 88186  1  0  0  0  0
 91187  1  0  0  0  0
 91188  1  0  0  0  0
 92189  1  0  0  0  0
 92190  1  0  0  0  0
 92191  1  0  0  0  0
 94192  1  0  0  0  0
 98193  1  0  0  0  0
102194  1  0  0  0  0
106195  1  0  0  0  0
107196  1  0  0  0  0
110197  1  0  0  0  0
110198  1  0  0  0  0
111199  1  0  0  0  0
111200  1  0  0  0  0
111201  1  0  0  0  0
114202  1  0  0  0  0
119203  1  0  0  0  0
120204  1  0  0  0  0
123205  1  0  0  0  0
123206  1  0  0  0  0
124207  1  0  0  0  0
124208  1  0  0  0  0
124209  1  0  0  0  0
126210  1  0  0  0  0
130211  1  0  0  0  0
131212  1  0  0  0  0
M  END
