182

C          9.24840        2.14550       10.34830
S          9.49390        0.55660        9.78060
C          8.26380        0.70920        8.55320
C          7.69630        1.99100        8.60810
C          8.27100        2.80390        9.63850
C          7.81260        4.13100        9.82360
C          6.84150        4.64570        9.02290
C          6.32760        6.04020        9.18330
C          6.29020        3.83870        7.97310
O          5.34680        4.46570        7.22290
C          4.73940        3.75710        6.16940
C          6.70810        2.54900        7.77310
C          7.92480       -0.38360        7.72070
S          6.35440       -0.47000        6.98250
C          6.65690       -2.02460        6.26640
C          7.96610       -2.43590        6.54320
C          8.67330       -1.52400        7.38400
C         10.01410       -1.81340        7.71320
C         10.63320       -2.93230        7.23730
C         12.05290       -3.25510        7.57630
C          9.92870       -3.81290        6.36010
O         10.65470       -4.87550        5.91560
C         10.03460       -5.79450        5.05090
C          8.63030       -3.55780        6.00760
C          5.64680       -2.62880        5.48370
S          4.56090       -1.62590        4.57600
C          3.76890       -2.98830        3.84210
C          4.29420       -4.18860        4.33750
C          5.34120       -3.98250        5.28670
C          5.86810       -5.09260        5.98010
C          5.45590       -6.36000        5.69080
C          6.00320       -7.55510        6.40420
C          4.45010       -6.56560        4.69550
O          4.12440       -7.86690        4.48240
C          3.14630       -8.16810        3.51590
C          3.86550       -5.50190        4.05790
C          2.74830       -2.75570        2.88830
C          2.27930       -3.57470        1.89540
C          1.25070       -3.00330        1.11310
C          0.56320       -3.59400        0.03460
C          0.78020       -4.99970       -0.32280
C          1.01400       -5.38820       -1.63840
C          1.20260       -6.71590       -1.96920
C          1.14870       -7.70820       -0.99710
S          1.38260       -9.43120       -1.29340
C          0.99950       -9.61770       -3.06930
C         -0.45560       -9.32120       -3.37690
C          0.91970       -7.30490        0.31850
F          0.86650       -8.23870        1.29470
C          0.73910       -5.98510        0.66320
C         -0.33910       -2.78990       -0.64230
C         -0.62590       -1.46340       -0.24300
C          0.00530       -0.89610        0.88120
C         -0.39470        0.45280        1.29700
C         -1.75130        0.73820        1.44880
C         -2.18750        2.02650        1.66780
C         -1.28320        3.08110        1.73090
S         -1.78980        4.76830        1.84980
C         -3.35060        4.75910        0.89230
C         -3.13580        4.32750       -0.54520
C          0.07420        2.76920        1.67880
C          0.52530        1.48230        1.46620
F          0.98430        3.75660        1.79730
C          0.95900       -1.67160        1.51030
S          1.92730       -1.19670        2.87890
C         -1.55450       -0.84110       -1.10100
C         -2.02230       -1.63950       -2.10990
S         -1.29940       -3.24010       -2.03450
C         -2.95560       -1.21360       -3.08870
S         -3.48240        0.43700       -3.01580
C         -4.50660        0.27630       -4.40410
C         -4.46280       -1.03340       -4.89590
C         -3.57350       -1.87440       -4.15410
C         -3.41860       -3.22240       -4.53970
C         -4.10830       -3.73300       -5.59890
C         -3.96130       -5.15670       -6.02860
C         -5.01590       -2.89500       -6.31950
O         -5.66510       -3.51370       -7.34410
C         -6.56860       -2.76670       -8.11870
C         -5.19210       -1.58270       -5.97060
C         -5.20460        1.42940       -4.85120
C         -5.84100        1.67660       -6.03470
C         -6.41800        2.96770       -6.12240
C         -7.11630        3.52050       -7.20800
C         -7.42700        2.70630       -8.38820
C         -8.01570        1.45210       -8.24370
C         -8.29260        0.65820       -9.33930
C         -7.99440        1.09390      -10.62530
S         -8.25040        0.16530      -12.10170
C         -9.43830       -1.13270      -11.61170
C        -10.81400       -0.56940      -11.31040
C         -7.41120        2.35560      -10.75660
F         -7.10040        2.80500      -11.98810
C         -7.13110        3.15690       -9.67250
C         -7.50010        4.84890       -7.08830
C         -7.23010        5.63210       -5.94020
C         -6.54230        5.07450       -4.85110
C         -6.19450        5.85970       -3.65980
C         -6.49630        5.40000       -2.37910
C         -6.10840        6.11580       -1.26760
C         -5.40620        7.31700       -1.37840
S         -4.99570        8.12070        0.14230
C         -3.46710        9.07510       -0.18100
C         -2.30300        8.19660       -0.59130
C         -5.14720        7.78150       -2.66390
C         -5.51890        7.06800       -3.78640
F         -4.51460        8.95920       -2.86990
C         -6.16860        3.74500       -4.96580
S         -5.27760        2.82800       -3.77990
C         -7.78090        6.94280       -6.05820
C         -8.42190        7.14070       -7.22760
S         -8.40680        5.75870       -8.26960
H          9.83490        2.51360       11.16600
H          8.25120        4.72690       10.61000
H          6.48770        6.60420        8.26590
H          6.82610        6.54420       10.00680
H          5.25480        6.02260        9.36820
H          5.47050        3.46030        5.41090
H          4.21540        2.86770        6.53270
H          4.02070        4.44470        5.72680
H          6.29960        1.95820        6.97220
H         10.56950       -1.13140        8.33620
H         12.10760       -4.22640        8.06530
H         12.64930       -3.31730        6.66730
H         12.47500       -2.49930        8.23250
H          9.15220       -6.24990        5.51200
H          9.74360       -5.32470        4.10580
H         10.77940       -6.56450        4.85590
H          8.10480       -4.17830        5.30230
H          6.58220       -4.92650        6.77190
H          5.19690       -8.10280        6.88910
H          6.46980       -8.23400        5.69150
H          6.73430       -7.25890        7.15210
H          2.17090       -7.75230        3.78360
H          3.43600       -7.80500        2.52520
H          3.07400       -9.25350        3.49030
H          3.05410       -5.65130        3.36860
H          2.70690       -4.53380        1.67290
H          1.07190       -4.63980       -2.41340
H          1.40280       -6.97260       -2.99690
H          1.23500      -10.66280       -3.26970
H          1.68190       -8.99300       -3.64450
H         -0.70310       -8.28940       -3.13530
H         -1.10240       -9.97430       -2.79570
H         -0.65140       -9.48760       -4.43450
H          0.53400       -5.73130        1.69160
H         -2.47220       -0.06350        1.39040
H         -3.24400        2.21400        1.77330
H         -3.69340        5.79190        0.94690
H         -4.07720        4.13090        1.40530
H         -4.06880        4.39960       -1.10050
H         -2.78550        3.29840       -0.59670
H         -2.39640        4.96490       -1.02450
H          1.58580        1.30230        1.38800
H         -1.86160        0.18400       -0.99540
H         -2.74570       -3.85560       -3.98310
H         -3.62950       -5.20160       -7.06470
H         -4.92330       -5.66420       -5.97520
H         -3.24570       -5.67710       -5.39830
H         -7.40530       -2.39810       -7.51520
H         -6.94420       -3.45450       -8.87520
H         -6.07670       -1.92070       -8.61090
H         -5.89810       -0.96280       -6.49280
H         -5.84680        0.99530       -6.86320
H         -8.27770        1.10050       -7.25670
H         -8.73960       -0.31040       -9.18190
H         -9.02300       -1.69270      -10.77430
H         -9.46970       -1.78670      -12.48310
H        -11.50000       -1.37780      -11.06460
H        -11.19850       -0.03800      -12.17760
H        -10.77810        0.12390      -10.47270
H         -6.66770        4.11680       -9.83510
H         -7.04230        4.47740       -2.25690
H         -6.34310        5.75550       -0.27790
H         -3.68330        9.84090       -0.92230
H         -3.27500        9.55580        0.77870
H         -2.52240        7.66730       -1.51650
H         -2.07350        7.46940        0.18430
H         -1.42370        8.81660       -0.75320
H         -5.26140        7.46170       -4.75770
H         -7.70810        7.68590       -5.28500
H         -8.92000        8.02850       -7.56510
