
  xtb     03042220353D
 energy: -202.052200024644 gnorm: 0.000612417439 xtb: 6.4.1 (unknown)
130141  0     0  0            999 V2000
    2.8189    8.7079    3.3870 C   0  0  0  0  0  0  0  0  0  0  0  0
    1.3241    7.9006    3.1319 S   0  0  0  0  0  0  0  0  0  0  0  0
    2.0856    6.3312    3.2792 C   0  0  0  0  0  0  0  0  0  0  0  0
    3.4262    6.4770    3.5211 C   0  0  0  0  0  0  0  0  0  0  0  0
    3.8378    7.8341    3.5870 C   0  0  0  0  0  0  0  0  0  0  0  0
    5.2857    8.1169    3.8722 C   0  0  0  0  0  0  0  0  0  0  0  0
    5.5734    9.5944    3.6498 C   0  0  0  0  0  0  0  0  0  0  0  0
    5.9651   10.0316    2.5991 O   0  0  0  0  0  0  0  0  0  0  0  0
    5.3241   10.4627    4.8561 C   0  0  0  0  0  0  0  0  0  0  0  0
    6.1902    7.2298    2.9925 C   0  0  0  0  0  0  0  0  0  0  0  0
    5.6099    5.8399    2.6859 C   0  0  0  0  0  0  0  0  0  0  0  0
    4.4951    5.4472    3.6622 C   0  0  0  0  0  0  0  0  0  0  0  0
    1.3300    5.1262    3.0717 C   0  0  0  0  0  0  0  0  0  0  0  0
    2.0190    3.8216    2.1531 S   0  0  0  0  0  0  0  0  0  0  0  0
    0.5638    2.8645    2.2768 C   0  0  0  0  0  0  0  0  0  0  0  0
   -0.3718    3.5270    3.0568 C   0  0  0  0  0  0  0  0  0  0  0  0
    0.0485    4.8119    3.4656 C   0  0  0  0  0  0  0  0  0  0  0  0
   -0.7965    5.7429    4.2792 C   0  0  0  0  0  0  0  0  0  0  0  0
   -0.1962    6.0292    5.6555 C   0  0  0  0  0  0  0  0  0  0  0  0
   -0.3192    7.1130    6.1676 O   0  0  0  0  0  0  0  0  0  0  0  0
    0.5156    4.8997    6.3568 C   0  0  0  0  0  0  0  0  0  0  0  0
   -2.2357    5.2215    4.4311 C   0  0  0  0  0  0  0  0  0  0  0  0
   -2.2653    3.7213    4.6773 C   0  0  0  0  0  0  0  0  0  0  0  0
   -1.6956    2.9717    3.4752 C   0  0  0  0  0  0  0  0  0  0  0  0
    0.4738    1.6072    1.6135 C   0  0  0  0  0  0  0  0  0  0  0  0
   -1.0043    0.6842    1.6932 S   0  0  0  0  0  0  0  0  0  0  0  0
   -0.3437   -0.6193    0.7459 C   0  0  0  0  0  0  0  0  0  0  0  0
    0.9706   -0.3310    0.4020 C   0  0  0  0  0  0  0  0  0  0  0  0
    1.4132    0.9258    0.8498 C   0  0  0  0  0  0  0  0  0  0  0  0
    2.7423    1.5000    0.4543 C   0  0  0  0  0  0  0  0  0  0  0  0
    2.5497    2.7680   -0.3867 C   0  0  0  0  0  0  0  0  0  0  0  0
    1.5190    3.0151   -0.9559 O   0  0  0  0  0  0  0  0  0  0  0  0
    3.7925    3.6081   -0.5518 C   0  0  0  0  0  0  0  0  0  0  0  0
    3.5592    0.5404   -0.4321 C   0  0  0  0  0  0  0  0  0  0  0  0
    3.3392   -0.9053   -0.0154 C   0  0  0  0  0  0  0  0  0  0  0  0
    1.8891   -1.2850   -0.2909 C   0  0  0  0  0  0  0  0  0  0  0  0
   -1.1406   -1.7309    0.3745 C   0  0  0  0  0  0  0  0  0  0  0  0
   -0.6315   -2.7717   -0.9199 S   0  0  0  0  0  0  0  0  0  0  0  0
   -2.0701   -3.7423   -0.8725 C   0  0  0  0  0  0  0  0  0  0  0  0
   -2.9203   -3.2729    0.1423 C   0  0  0  0  0  0  0  0  0  0  0  0
   -2.3959   -2.1457    0.8454 C   0  0  0  0  0  0  0  0  0  0  0  0
   -3.1451   -1.6052    1.9109 C   0  0  0  0  0  0  0  0  0  0  0  0
   -4.3574   -2.1236    2.2597 C   0  0  0  0  0  0  0  0  0  0  0  0
   -5.1661   -1.5576    3.3822 C   0  0  0  0  0  0  0  0  0  0  0  0
   -4.8736   -3.2490    1.5498 C   0  0  0  0  0  0  0  0  0  0  0  0
   -6.0848   -3.6909    1.9855 O   0  0  0  0  0  0  0  0  0  0  0  0
   -6.6785   -4.7794    1.3214 C   0  0  0  0  0  0  0  0  0  0  0  0
   -4.1619   -3.8156    0.5258 C   0  0  0  0  0  0  0  0  0  0  0  0
   -2.2643   -4.7824   -1.8115 C   0  0  0  0  0  0  0  0  0  0  0  0
   -3.8627   -5.3460   -2.2048 S   0  0  0  0  0  0  0  0  0  0  0  0
   -3.2906   -6.4306   -3.4213 C   0  0  0  0  0  0  0  0  0  0  0  0
   -1.9048   -6.4022   -3.4908 C   0  0  0  0  0  0  0  0  0  0  0  0
   -1.3149   -5.4555   -2.5973 C   0  0  0  0  0  0  0  0  0  0  0  0
    0.0914   -5.3504   -2.5740 C   0  0  0  0  0  0  0  0  0  0  0  0
    0.8734   -6.1237   -3.3816 C   0  0  0  0  0  0  0  0  0  0  0  0
    2.3652   -6.0187   -3.3687 C   0  0  0  0  0  0  0  0  0  0  0  0
    0.2705   -7.0885   -4.2490 C   0  0  0  0  0  0  0  0  0  0  0  0
    1.1563   -7.8236   -4.9820 O   0  0  0  0  0  0  0  0  0  0  0  0
    0.6509   -8.8169   -5.8359 C   0  0  0  0  0  0  0  0  0  0  0  0
   -1.0879   -7.2337   -4.2919 C   0  0  0  0  0  0  0  0  0  0  0  0
   -4.2032   -7.1713   -4.2438 C   0  0  0  0  0  0  0  0  0  0  0  0
   -5.4390   -8.1798   -3.5415 S   0  0  0  0  0  0  0  0  0  0  0  0
   -6.0004   -8.6301   -5.1021 C   0  0  0  0  0  0  0  0  0  0  0  0
   -5.2988   -8.0361   -6.1038 C   0  0  0  0  0  0  0  0  0  0  0  0
   -4.2684   -7.1911   -5.6151 C   0  0  0  0  0  0  0  0  0  0  0  0
   -3.4057   -6.3503   -6.5127 C   0  0  0  0  0  0  0  0  0  0  0  0
   -3.2931   -4.9199   -5.9896 C   0  0  0  0  0  0  0  0  0  0  0  0
   -4.2248   -4.3387   -5.4972 O   0  0  0  0  0  0  0  0  0  0  0  0
   -1.9467   -4.2793   -6.2027 C   0  0  0  0  0  0  0  0  0  0  0  0
   -4.0212   -6.2879   -7.9210 C   0  0  0  0  0  0  0  0  0  0  0  0
   -4.4084   -7.6848   -8.3950 C   0  0  0  0  0  0  0  0  0  0  0  0
   -5.5784   -8.2055   -7.5649 C   0  0  0  0  0  0  0  0  0  0  0  0
    2.8372    9.7788    3.3619 H   0  0  0  0  0  0  0  0  0  0  0  0
    5.4606    7.8806    4.9292 H   0  0  0  0  0  0  0  0  0  0  0  0
    6.1543   10.3314    5.5494 H   0  0  0  0  0  0  0  0  0  0  0  0
    4.4092   10.1680    5.3635 H   0  0  0  0  0  0  0  0  0  0  0  0
    5.2769   11.5090    4.5659 H   0  0  0  0  0  0  0  0  0  0  0  0
    7.1521    7.1293    3.4990 H   0  0  0  0  0  0  0  0  0  0  0  0
    6.3673    7.7649    2.0581 H   0  0  0  0  0  0  0  0  0  0  0  0
    6.4067    5.0955    2.7151 H   0  0  0  0  0  0  0  0  0  0  0  0
    5.1855    5.8332    1.6801 H   0  0  0  0  0  0  0  0  0  0  0  0
    4.8810    5.4521    4.6861 H   0  0  0  0  0  0  0  0  0  0  0  0
    4.1265    4.4470    3.4413 H   0  0  0  0  0  0  0  0  0  0  0  0
   -0.8554    6.7134    3.7749 H   0  0  0  0  0  0  0  0  0  0  0  0
   -0.1393    4.5182    7.1400 H   0  0  0  0  0  0  0  0  0  0  0  0
    1.4080    5.2876    6.8435 H   0  0  0  0  0  0  0  0  0  0  0  0
    0.7815    4.0928    5.6825 H   0  0  0  0  0  0  0  0  0  0  0  0
   -2.7241    5.7586    5.2463 H   0  0  0  0  0  0  0  0  0  0  0  0
   -2.7824    5.4387    3.5112 H   0  0  0  0  0  0  0  0  0  0  0  0
   -3.2934    3.3965    4.8466 H   0  0  0  0  0  0  0  0  0  0  0  0
   -1.6881    3.4763    5.5695 H   0  0  0  0  0  0  0  0  0  0  0  0
   -2.3948    3.0276    2.6350 H   0  0  0  0  0  0  0  0  0  0  0  0
   -1.5857    1.9162    3.7342 H   0  0  0  0  0  0  0  0  0  0  0  0
    3.3219    1.7400    1.3525 H   0  0  0  0  0  0  0  0  0  0  0  0
    4.4166    3.5826    0.3360 H   0  0  0  0  0  0  0  0  0  0  0  0
    4.3621    3.2184   -1.3942 H   0  0  0  0  0  0  0  0  0  0  0  0
    3.5105    4.6321   -0.7821 H   0  0  0  0  0  0  0  0  0  0  0  0
    4.6155    0.8047   -0.3670 H   0  0  0  0  0  0  0  0  0  0  0  0
    3.2430    0.6527   -1.4723 H   0  0  0  0  0  0  0  0  0  0  0  0
    4.0072   -1.5614   -0.5756 H   0  0  0  0  0  0  0  0  0  0  0  0
    3.5570   -1.0221    1.0485 H   0  0  0  0  0  0  0  0  0  0  0  0
    1.6947   -2.3013    0.0609 H   0  0  0  0  0  0  0  0  0  0  0  0
    1.7023   -1.2702   -1.3693 H   0  0  0  0  0  0  0  0  0  0  0  0
   -2.7510   -0.7730    2.4703 H   0  0  0  0  0  0  0  0  0  0  0  0
   -4.6558   -0.7141    3.8390 H   0  0  0  0  0  0  0  0  0  0  0  0
   -5.3463   -2.3222    4.1362 H   0  0  0  0  0  0  0  0  0  0  0  0
   -6.1376   -1.2331    3.0129 H   0  0  0  0  0  0  0  0  0  0  0  0
   -7.6413   -4.9308    1.8071 H   0  0  0  0  0  0  0  0  0  0  0  0
   -6.8355   -4.5649    0.2597 H   0  0  0  0  0  0  0  0  0  0  0  0
   -6.0762   -5.6883    1.4200 H   0  0  0  0  0  0  0  0  0  0  0  0
   -4.5313   -4.6856    0.0127 H   0  0  0  0  0  0  0  0  0  0  0  0
    0.5646   -4.6596   -1.8955 H   0  0  0  0  0  0  0  0  0  0  0  0
    2.6911   -5.2567   -2.6661 H   0  0  0  0  0  0  0  0  0  0  0  0
    2.8058   -6.9752   -3.0919 H   0  0  0  0  0  0  0  0  0  0  0  0
    2.7316   -5.7701   -4.3636 H   0  0  0  0  0  0  0  0  0  0  0  0
    1.5201   -9.2761   -6.3042 H   0  0  0  0  0  0  0  0  0  0  0  0
    0.0061   -8.3905   -6.6125 H   0  0  0  0  0  0  0  0  0  0  0  0
    0.0924   -9.5790   -5.2827 H   0  0  0  0  0  0  0  0  0  0  0  0
   -1.5674   -7.9916   -4.8895 H   0  0  0  0  0  0  0  0  0  0  0  0
   -6.8275   -9.3066   -5.1874 H   0  0  0  0  0  0  0  0  0  0  0  0
   -2.4010   -6.7804   -6.5874 H   0  0  0  0  0  0  0  0  0  0  0  0
   -1.9835   -3.2283   -5.9290 H   0  0  0  0  0  0  0  0  0  0  0  0
   -1.2052   -4.7846   -5.5862 H   0  0  0  0  0  0  0  0  0  0  0  0
   -1.6482   -4.3800   -7.2441 H   0  0  0  0  0  0  0  0  0  0  0  0
   -4.9112   -5.6553   -7.8933 H   0  0  0  0  0  0  0  0  0  0  0  0
   -3.3041   -5.8369   -8.6100 H   0  0  0  0  0  0  0  0  0  0  0  0
   -4.6889   -7.6559   -9.4493 H   0  0  0  0  0  0  0  0  0  0  0  0
   -3.5522   -8.3560   -8.2918 H   0  0  0  0  0  0  0  0  0  0  0  0
   -5.7753   -9.2562   -7.7897 H   0  0  0  0  0  0  0  0  0  0  0  0
   -6.4813   -7.6415   -7.8193 H   0  0  0  0  0  0  0  0  0  0  0  0
  1  2  1  0  0  0  0
  2  3  1  0  0  0  0
  3  4  2  0  0  0  0
  4  5  1  0  0  0  0
  5  6  1  0  0  0  0
  6  7  1  0  0  0  0
  7  8  2  0  0  0  0
  7  9  1  0  0  0  0
  6 10  1  0  0  0  0
 10 11  1  0  0  0  0
 11 12  1  0  0  0  0
  3 13  1  0  0  0  0
 13 14  1  0  0  0  0
 14 15  1  0  0  0  0
 15 16  2  0  0  0  0
 16 17  1  0  0  0  0
 17 18  1  0  0  0  0
 18 19  1  0  0  0  0
 19 20  2  0  0  0  0
 19 21  1  0  0  0  0
 18 22  1  0  0  0  0
 22 23  1  0  0  0  0
 23 24  1  0  0  0  0
 15 25  1  0  0  0  0
 25 26  1  0  0  0  0
 26 27  1  0  0  0  0
 27 28  2  0  0  0  0
 28 29  1  0  0  0  0
 29 30  1  0  0  0  0
 30 31  1  0  0  0  0
 31 32  2  0  0  0  0
 31 33  1  0  0  0  0
 30 34  1  0  0  0  0
 34 35  1  0  0  0  0
 35 36  1  0  0  0  0
 27 37  1  0  0  0  0
 37 38  1  0  0  0  0
 38 39  1  0  0  0  0
 39 40  2  0  0  0  0
 40 41  1  0  0  0  0
 41 42  1  0  0  0  0
 42 43  2  0  0  0  0
 43 44  1  0  0  0  0
 43 45  1  0  0  0  0
 45 46  1  0  0  0  0
 46 47  1  0  0  0  0
 45 48  2  0  0  0  0
 39 49  1  0  0  0  0
 49 50  1  0  0  0  0
 50 51  1  0  0  0  0
 51 52  2  0  0  0  0
 52 53  1  0  0  0  0
 53 54  1  0  0  0  0
 54 55  2  0  0  0  0
 55 56  1  0  0  0  0
 55 57  1  0  0  0  0
 57 58  1  0  0  0  0
 58 59  1  0  0  0  0
 57 60  2  0  0  0  0
 51 61  1  0  0  0  0
 61 62  1  0  0  0  0
 62 63  1  0  0  0  0
 63 64  2  0  0  0  0
 64 65  1  0  0  0  0
 65 66  1  0  0  0  0
 66 67  1  0  0  0  0
 67 68  2  0  0  0  0
 67 69  1  0  0  0  0
 66 70  1  0  0  0  0
 70 71  1  0  0  0  0
 71 72  1  0  0  0  0
  5  1  2  0  0  0  0
 17 13  2  0  0  0  0
 29 25  2  0  0  0  0
 41 37  2  0  0  0  0
 53 49  2  0  0  0  0
 65 61  2  0  0  0  0
 12  4  1  0  0  0  0
 24 16  1  0  0  0  0
 36 28  1  0  0  0  0
 48 40  1  0  0  0  0
 60 52  1  0  0  0  0
 72 64  1  0  0  0  0
  1 73  1  0  0  0  0
  6 74  1  0  0  0  0
  9 75  1  0  0  0  0
  9 76  1  0  0  0  0
  9 77  1  0  0  0  0
 10 78  1  0  0  0  0
 10 79  1  0  0  0  0
 11 80  1  0  0  0  0
 11 81  1  0  0  0  0
 12 82  1  0  0  0  0
 12 83  1  0  0  0  0
 18 84  1  0  0  0  0
 21 85  1  0  0  0  0
 21 86  1  0  0  0  0
 21 87  1  0  0  0  0
 22 88  1  0  0  0  0
 22 89  1  0  0  0  0
 23 90  1  0  0  0  0
 23 91  1  0  0  0  0
 24 92  1  0  0  0  0
 24 93  1  0  0  0  0
 30 94  1  0  0  0  0
 33 95  1  0  0  0  0
 33 96  1  0  0  0  0
 33 97  1  0  0  0  0
 34 98  1  0  0  0  0
 34 99  1  0  0  0  0
 35100  1  0  0  0  0
 35101  1  0  0  0  0
 36102  1  0  0  0  0
 36103  1  0  0  0  0
 42104  1  0  0  0  0
 44105  1  0  0  0  0
 44106  1  0  0  0  0
 44107  1  0  0  0  0
 47108  1  0  0  0  0
 47109  1  0  0  0  0
 47110  1  0  0  0  0
 48111  1  0  0  0  0
 54112  1  0  0  0  0
 56113  1  0  0  0  0
 56114  1  0  0  0  0
 56115  1  0  0  0  0
 59116  1  0  0  0  0
 59117  1  0  0  0  0
 59118  1  0  0  0  0
 60119  1  0  0  0  0
 63120  1  0  0  0  0
 66121  1  0  0  0  0
 69122  1  0  0  0  0
 69123  1  0  0  0  0
 69124  1  0  0  0  0
 70125  1  0  0  0  0
 70126  1  0  0  0  0
 71127  1  0  0  0  0
 71128  1  0  0  0  0
 72129  1  0  0  0  0
 72130  1  0  0  0  0
M  END
