242

C        -12.83770        0.86510       13.64820
S        -13.05620        0.44720       12.01170
C        -11.35220        0.52730       11.68210
C        -10.64360        0.85110       12.84100
C        -11.51130        1.05140       13.96540
C        -10.95910        1.39180       15.22470
C         -9.61450        1.51670       15.37950
C         -8.98930        1.87390       16.68920
C         -8.74680        1.28260       14.25920
O         -7.42550        1.41640       14.54080
C         -6.49090        1.23720       13.50380
C         -9.24860        0.95300       13.02850
C        -10.87990        0.27170       10.36410
C         -9.70080        0.64290        9.78270
C         -9.54420        0.18360        8.45270
C         -8.43270        0.35290        7.61090
C         -7.20670        1.02140        8.06500
C         -6.62180        2.03740        7.31500
C         -5.45760        2.65700        7.72840
C         -4.83470        2.28190        8.91340
S         -3.34150        2.96820        9.55020
C         -3.07000        4.47530        8.55650
C         -4.05950        5.57420        8.89220
C         -5.42490        1.25270        9.64870
F         -4.83910        0.84680       10.79810
C         -6.58490        0.62930        9.24920
C         -8.53570       -0.17690        6.33570
C         -9.67560       -0.87510        5.86700
C        -10.77980       -1.06320        6.71890
C        -11.95670       -1.81940        6.27780
C        -13.24190       -1.31230        6.44390
C        -14.35040       -2.01510        6.01350
C        -14.21520       -3.25860        5.40680
S        -15.53860       -4.24360        4.78750
C        -17.02110       -3.55380        5.59890
C        -17.03890       -3.82480        7.09110
C        -12.92070       -3.75550        5.24680
C        -11.80800       -3.06590        5.67050
F        -12.74580       -4.95470        4.65200
C        -10.68560       -0.51760        7.98980
S        -11.88950       -0.63980        9.24660
C         -9.52230       -1.30690        4.52570
C         -8.29950       -1.01890        3.98680
S         -7.28340       -0.14040        5.12820
C         -7.73380       -1.30590        2.71530
S         -6.22750       -0.54020        2.34900
C         -6.07940       -1.33540        0.81350
C         -7.18710       -2.15670        0.58540
C         -8.12420       -2.14920        1.66880
C         -9.25990       -2.98250        1.58180
C         -9.48220       -3.75970        0.48340
C        -10.67430       -4.65370        0.37560
C         -8.55370       -3.73430       -0.60590
O         -8.88530       -4.53600       -1.64990
C         -8.02170       -4.58650       -2.75890
C         -7.42920       -2.95380       -0.55000
C         -4.88670       -1.09380        0.08780
C         -3.87430       -0.29410        0.54710
C         -2.74200       -0.23880       -0.28930
C         -1.52920        0.42360       -0.02260
C         -1.42070        1.18360        1.23050
C         -2.36820        2.15960        1.53900
C         -2.41560        2.72070        2.79720
C         -1.51860        2.33020        3.78490
S         -1.72410        2.96950        5.42750
C         -1.83890        1.41230        6.38740
C         -3.01980        0.56640        5.95370
C         -0.51270        1.43660        3.43350
F          0.42370        1.07680        4.33550
C         -0.45950        0.85790        2.18020
C         -0.51040        0.24290       -0.93990
C         -0.67680       -0.55090       -2.10250
C         -1.88100       -1.23530       -2.35670
C         -1.97030       -2.13170       -3.51650
C         -2.98980       -2.03120       -4.45710
C         -2.99640       -2.83090       -5.58490
C         -1.98540       -3.75870       -5.81180
S         -1.88080       -4.81680       -7.21930
C         -2.66230       -3.82950       -8.54160
C         -1.88840       -2.55840       -8.82920
C         -0.99830       -3.88310       -4.83410
C         -0.97870       -3.09380       -3.70760
F         -0.01080       -4.78670       -5.00120
C         -2.90060       -1.04570       -1.44370
S         -4.47250       -1.81310       -1.46160
C          0.48180       -0.54880       -2.90810
C          1.51950        0.17260       -2.38990
S          1.09550        0.92700       -0.86620
C          2.81700        0.24990       -2.98000
C          3.15930       -0.32530       -4.17020
C          4.53030       -0.21250       -4.49060
C          5.18760       -0.75710       -5.60820
C          4.43890       -1.56520       -6.57880
C          3.60220       -2.59870       -6.15280
C          2.83440       -3.30440       -7.05340
C          2.87230       -3.01150       -8.41620
S          1.78220       -3.91130       -9.47500
C          2.76070       -4.12670      -11.01540
C          2.26570       -5.36170      -11.74170
C          3.72660       -1.99440       -8.83120
F          3.79980       -1.64300      -10.13530
C          4.50750       -1.28670       -7.93930
C          6.54060       -0.48360       -5.71840
C          7.24940        0.27430       -4.75200
C          6.59710        0.78680       -3.61690
C          7.34870        1.53620       -2.60270
C          8.52940        1.02260       -2.06620
C          9.25480        1.74510       -1.14460
C          8.84390        3.01010       -0.72820
S          9.90650        3.87330        0.39220
C          8.76400        4.71930        1.54440
C          7.83670        3.74490        2.24160
C          7.66490        3.51030       -1.27220
C          6.91490        2.78690       -2.17810
F          7.21760        4.74100       -0.94140
C          5.23770        0.53820       -3.51920
S          4.18660        1.02300       -2.20980
C          8.61430        0.41840       -5.09860
C          8.96350       -0.22850       -6.24600
S          7.60080       -1.04090       -6.99030
C         10.27300       -0.29090       -6.80600
C         10.70810       -0.93810       -7.92240
C         12.10510       -0.80410       -8.14650
C         12.87290       -1.31030       -9.20740
C         12.28000       -2.17970      -10.23040
C         11.53180       -3.29850       -9.86520
C         10.97420       -4.11410      -10.82550
C         11.14140       -3.85470      -12.18480
S         10.41210       -4.99970      -13.31870
C          9.78350       -3.94870      -14.68030
C          8.79820       -2.90890      -14.18630
C         11.91600       -2.75290      -12.53410
F         12.15370       -2.45540      -13.83050
C         12.46870       -1.91910      -11.58300
C         14.21890       -0.96710       -9.22230
C         14.83040       -0.16630       -8.22650
C         14.06750        0.33050       -7.16200
C         14.61090        1.19550       -6.10730
C         14.37370        0.90120       -4.76700
C         14.76870        1.76440       -3.76580
C         15.40540        2.96270       -4.06900
S         15.88810        4.16250       -2.87190
C         14.73430        3.86170       -1.48430
C         13.28860        4.11350       -1.86570
C         15.68600        3.21880       -5.41190
C         15.30240        2.36280       -6.42140
F         16.33380        4.35290       -5.74490
C         12.72280       -0.00880       -7.15180
S         11.57180        0.53240       -5.96160
C         16.23120       -0.02040       -8.45300
C         16.65300       -0.66720       -9.55800
S         15.39060       -1.49630      -10.40260
H        -13.68780        0.95480       14.29460
H        -11.62590        1.54630       16.05990
H         -8.31770        1.07930       17.01030
H         -8.39190        2.77790       16.58320
H         -9.74850        2.03160       17.45030
H         -6.65300        1.95090       12.69050
H         -5.51320        1.41760       13.94620
H         -6.51900        0.21960       13.10410
H         -8.59150        0.74340       12.20370
H         -8.97830        1.27710       10.25960
H         -7.09090        2.35970        6.39800
H         -5.03370        3.43390        7.11320
H         -3.07970        4.20960        7.50030
H         -2.05590        4.77250        8.82380
H         -3.99080        5.83500        9.94590
H         -3.83810        6.45910        8.29920
H         -5.08030        5.26180        8.68230
H         -6.98400       -0.17710        9.84480
H        -13.37840       -0.34190        6.89570
H        -15.32570       -1.57570        6.14480
H        -17.08630       -2.49150        5.36650
H        -17.84330       -4.06770        5.10090
H        -16.99270       -4.89520        7.27770
H        -16.19130       -3.35390        7.58490
H        -17.95630       -3.43420        7.52710
H        -10.83420       -3.51480        5.55070
H        -10.31510       -1.78040        3.97940
H         -9.95940       -3.01970        2.39990
H        -11.28080       -4.60700        1.27570
H        -10.35450       -5.68140        0.21230
H        -11.28060       -4.36510       -0.48170
H         -7.02930       -4.95410       -2.47940
H         -8.48160       -5.28250       -3.45860
H         -7.92140       -3.60560       -3.23430
H         -6.71500       -2.93390       -1.35580
H         -3.93460        0.21420        1.49240
H         -3.08660        2.45760        0.79040
H         -3.17330        3.44730        3.04620
H         -1.94770        1.74170        7.42010
H         -0.89620        0.87840        6.28670
H         -2.90200        0.22900        4.92500
H         -3.09640       -0.30790        6.59670
H         -3.94940        1.12740        6.02710
H          0.31080        0.13260        1.96880
H         -3.77460       -1.30340       -4.31670
H         -3.79760       -2.72390       -6.29880
H         -2.64270       -4.50020       -9.40020
H         -3.70040       -3.63460       -8.27470
H         -1.88980       -1.89870       -7.96330
H         -0.85750       -2.79860       -9.07960
H         -2.34000       -2.03160       -9.66750
H         -0.19400       -3.23350       -2.98030
H          0.53690       -1.06590       -3.84710
H          2.45150       -0.81230       -4.81330
H          3.57190       -2.86390       -5.10700
H          2.18310       -4.09570       -6.71560
H          2.64260       -3.23390      -11.62790
H          3.80280       -4.23510      -10.71810
H          2.84590       -5.51070      -12.64990
H          2.36820       -6.24220      -11.11140
H          1.21770       -5.25150      -12.01140
H          5.13260       -0.49250       -8.31620
H          8.86390        0.03860       -2.35710
H         10.16500        1.34190       -0.72850
H          8.21750        5.48610        1.00000
H          9.43800        5.19920        2.25420
H          7.23170        4.27700        2.97280
H          7.16840        3.26510        1.52890
H          8.40750        2.97330        2.75450
H          6.01460        3.22990       -2.57430
H          9.31890        0.99240       -4.52400
H         10.04690       -1.48180       -8.57350
H         11.40160       -3.53520       -8.82020
H         10.39450       -4.97800      -10.53930
H         10.62630       -3.49880      -15.20010
H          9.29950       -4.66600      -15.34330
H          9.28530       -2.19540      -13.52420
H          8.38570       -2.36410      -15.03310
H          7.98250       -3.38220      -13.64360
H         13.04160       -1.06680      -11.91340
H         13.88240       -0.02270       -4.50250
H         14.57360        1.49970       -2.73920
H         15.06640        4.57220       -0.72760
H         14.89450        2.85320       -1.10510
H         12.96460        3.43010       -2.64840
H         12.64510        3.97560       -0.99860
H         13.16790        5.13160       -2.22790
H         15.50640        2.63160       -7.44610
H         16.87940        0.53380       -7.79890
H         17.64910       -0.71830       -9.95240
