98

C          5.66310        1.18570        7.58790
C          6.40660        2.22240        7.03590
C          7.44020        2.99800        7.59450
C          7.93110        4.06310        6.88340
C          7.39690        4.40010        5.63040
C          6.39900        3.64530        5.04420
C          5.92630        2.51670        5.70450
C          4.89660        1.57790        5.39560
C          4.65500        0.78640        6.64040
O          3.76370       -0.05000        6.74540
C          4.16460        1.26890        4.28460
S          2.72640        0.29290        4.49400
C          2.20150        0.57310        2.82910
C          3.27430        1.19110        2.08460
C          4.36400        1.56310        2.89540
C          5.54440        2.01660        2.30790
C          5.63910        2.16350        0.94160
C          6.89130        2.65010        0.28640
C          4.53310        1.81860        0.13390
O          4.71160        1.99210       -1.19900
C          3.64090        1.70210       -2.06740
C          3.37790        1.30430        0.70220
C          0.95250        0.22260        2.39990
C         -0.00410       -0.66380        3.02950
C          0.05220       -1.32390        4.24780
C         -1.01080       -2.12530        4.63070
C         -2.12540       -2.25310        3.81680
C         -2.18890       -1.61220        2.58920
C         -1.11980       -0.83370        2.17070
C         -0.92400       -0.05890        0.95030
C          0.26570        0.78650        1.21250
O          0.57940        1.83010        0.66740
C         -1.60960       -0.20350       -0.22650
S         -2.82160       -1.49770       -0.35940
C         -3.20420       -1.11350       -2.01510
C         -2.30590       -0.10630       -2.50530
C         -1.46630        0.44110       -1.51440
C         -0.61380        1.48130       -1.88860
C         -0.52260        1.90200       -3.19900
C          0.38040        3.02660       -3.59410
C         -1.27560        1.25030       -4.19730
O         -1.06730        1.67810       -5.46930
C         -1.80900        1.09030       -6.51120
C         -2.16950        0.25410       -3.84250
C         -4.23280       -1.77630       -2.62390
C         -5.02380       -1.55740       -3.81240
C         -5.24950       -0.40130       -4.54420
C         -6.17730       -0.42980       -5.57340
C         -6.90400       -1.58020       -5.84370
C         -6.73690       -2.72340       -5.07780
C         -5.78550       -2.72520       -4.06910
C         -5.52360       -3.71710       -3.03840
C         -4.70940       -3.01550       -2.00440
O         -4.37020       -3.38570       -0.89270
C         -5.76470       -5.05660       -3.07210
C         -5.70420       -6.03230       -2.00810
C         -5.69590       -5.89830       -0.62980
C         -5.68350       -7.04100        0.15860
C         -5.70170       -8.31900       -0.40510
C         -5.75870       -8.48510       -1.77000
C         -5.77950       -7.34520       -2.58840
C         -5.91300       -7.23830       -3.97130
C         -5.95810       -5.85170       -4.35110
O         -6.03880       -5.40460       -5.48480
H          5.79500        0.74350        8.55720
H          7.81620        2.75890        8.57770
H          8.72230        4.67160        7.29610
H          7.77440        5.27220        5.11710
H          5.97870        3.94820        4.09770
H          6.40880        2.20860        2.92260
H          6.68840        3.56360       -0.27060
H          7.66590        2.84370        1.02330
H          7.25060        1.91110       -0.42790
H          3.97430        2.01280       -3.05640
H          2.74100        2.25770       -1.79210
H          3.41410        0.63130       -2.08230
H          2.56460        0.98090        0.07950
H          0.90070       -1.21880        4.90300
H         -0.97380       -2.63990        5.57890
H         -2.95990       -2.85710        4.14010
H         -3.08080       -1.71400        1.99540
H         -0.01830        1.97730       -1.14240
H          0.77770        3.52830       -2.71660
H         -0.16590        3.74470       -4.20270
H          1.20510        2.65120       -4.19910
H         -1.48060        1.58850       -7.42190
H         -1.60890        0.01760       -6.59450
H         -2.88400        1.24800       -6.38000
H         -2.74220       -0.27280       -4.58580
H         -4.74540        0.51950       -4.29270
H         -6.35240        0.46320       -6.15620
H         -7.63140       -1.57630       -6.64120
H         -7.34650       -3.59080       -5.26400
H         -5.67970       -4.92680       -0.16670
H         -5.65750       -6.93970        1.23310
H         -5.68270       -9.18330        0.24260
H         -5.79970       -9.46760       -2.21550
H         -5.95620       -8.04800       -4.67610
