
  xtb     03032200143D
 energy: -456.299551672906 gnorm: 0.000189561925 xtb: 6.4.1 (unknown)
232258  0     0  0            999 V2000
   -9.8422   -5.0480   14.8715 C   0  0  0  0  0  0  0  0  0  0  0  0
   -9.5323   -3.7542   14.6515 C   0  0  0  0  0  0  0  0  0  0  0  0
   -9.4563   -3.4316   13.2648 C   0  0  0  0  0  0  0  0  0  0  0  0
   -9.1899   -2.1869   12.6722 C   0  0  0  0  0  0  0  0  0  0  0  0
   -8.8858   -1.0090   13.4688 C   0  0  0  0  0  0  0  0  0  0  0  0
   -7.6091   -1.0288   14.6505 S   0  0  0  0  0  0  0  0  0  0  0  0
   -7.8525    0.6352   15.0600 C   0  0  0  0  0  0  0  0  0  0  0  0
   -6.9829    1.3199   16.0556 C   0  0  0  0  0  0  0  0  0  0  0  0
   -5.6836    1.8025   15.4064 C   0  0  0  0  0  0  0  0  0  0  0  0
   -8.8628    1.1618   14.3128 C   0  0  0  0  0  0  0  0  0  0  0  0
   -9.3967    2.7877   14.4362 Cl  0  0  0  0  0  0  0  0  0  0  0  0
   -9.4531    0.2337   13.4122 C   0  0  0  0  0  0  0  0  0  0  0  0
  -10.7955    0.6396   12.4275 Cl  0  0  0  0  0  0  0  0  0  0  0  0
   -9.1963   -2.1353   11.2834 C   0  0  0  0  0  0  0  0  0  0  0  0
   -9.4641   -3.2650   10.4712 C   0  0  0  0  0  0  0  0  0  0  0  0
   -9.7595   -4.5028   11.0655 C   0  0  0  0  0  0  0  0  0  0  0  0
  -10.0648   -5.6684   10.2540 C   0  0  0  0  0  0  0  0  0  0  0  0
   -9.2123   -7.1684   10.4666 S   0  0  0  0  0  0  0  0  0  0  0  0
  -10.1025   -7.9433    9.2018 C   0  0  0  0  0  0  0  0  0  0  0  0
   -9.8028   -9.3436    8.7945 C   0  0  0  0  0  0  0  0  0  0  0  0
   -8.6452   -9.3851    7.7938 C   0  0  0  0  0  0  0  0  0  0  0  0
  -11.0020   -7.0771    8.6552 C   0  0  0  0  0  0  0  0  0  0  0  0
  -10.9867   -5.7875    9.2507 C   0  0  0  0  0  0  0  0  0  0  0  0
  -12.0801   -4.5457    8.7927 Cl  0  0  0  0  0  0  0  0  0  0  0  0
  -12.0677   -7.4863    7.3741 Cl  0  0  0  0  0  0  0  0  0  0  0  0
   -9.7327   -4.5570   12.4537 C   0  0  0  0  0  0  0  0  0  0  0  0
  -10.0682   -5.9646   13.4223 S   0  0  0  0  0  0  0  0  0  0  0  0
   -9.3237   -2.9692    9.0926 C   0  0  0  0  0  0  0  0  0  0  0  0
   -8.9751   -1.6750    8.8474 C   0  0  0  0  0  0  0  0  0  0  0  0
   -8.7985   -0.7428   10.3191 S   0  0  0  0  0  0  0  0  0  0  0  0
   -8.7376   -1.0626    7.5824 C   0  0  0  0  0  0  0  0  0  0  0  0
   -8.2812    0.1992    7.3440 C   0  0  0  0  0  0  0  0  0  0  0  0
   -8.1016    0.4866    5.9689 C   0  0  0  0  0  0  0  0  0  0  0  0
   -7.6150    1.6749    5.3918 C   0  0  0  0  0  0  0  0  0  0  0  0
   -7.3894    2.8591    6.1993 C   0  0  0  0  0  0  0  0  0  0  0  0
   -5.9047    3.7596    6.1096 S   0  0  0  0  0  0  0  0  0  0  0  0
   -6.4397    4.9095    7.2863 C   0  0  0  0  0  0  0  0  0  0  0  0
   -5.5916    6.0725    7.6655 C   0  0  0  0  0  0  0  0  0  0  0  0
   -5.7113    7.1928    6.6294 C   0  0  0  0  0  0  0  0  0  0  0  0
   -7.7020    4.6090    7.7041 C   0  0  0  0  0  0  0  0  0  0  0  0
   -8.5733    5.5291    8.8615 Cl  0  0  0  0  0  0  0  0  0  0  0  0
   -8.2428    3.4454    7.0952 C   0  0  0  0  0  0  0  0  0  0  0  0
   -9.8432    2.9078    7.4061 Cl  0  0  0  0  0  0  0  0  0  0  0  0
   -7.3533    1.6459    4.0277 C   0  0  0  0  0  0  0  0  0  0  0  0
   -7.6542    0.5223    3.2218 C   0  0  0  0  0  0  0  0  0  0  0  0
   -8.2515   -0.6233    3.7782 C   0  0  0  0  0  0  0  0  0  0  0  0
   -8.6205   -1.7320    2.9169 C   0  0  0  0  0  0  0  0  0  0  0  0
   -8.1136   -3.3635    3.2386 S   0  0  0  0  0  0  0  0  0  0  0  0
   -8.8335   -3.9577    1.7817 C   0  0  0  0  0  0  0  0  0  0  0  0
   -8.6939   -5.3813    1.3695 C   0  0  0  0  0  0  0  0  0  0  0  0
   -7.4519   -5.5710    0.4946 C   0  0  0  0  0  0  0  0  0  0  0  0
   -9.4341   -2.9416    1.0995 C   0  0  0  0  0  0  0  0  0  0  0  0
   -9.3198   -1.6807    1.7405 C   0  0  0  0  0  0  0  0  0  0  0  0
  -10.0630   -0.2640    1.1167 Cl  0  0  0  0  0  0  0  0  0  0  0  0
  -10.2508   -3.1449   -0.3946 Cl  0  0  0  0  0  0  0  0  0  0  0  0
   -8.4182   -0.6298    5.1550 C   0  0  0  0  0  0  0  0  0  0  0  0
   -8.9960   -1.9688    6.1043 S   0  0  0  0  0  0  0  0  0  0  0  0
   -7.2109    0.6926    1.8914 C   0  0  0  0  0  0  0  0  0  0  0  0
   -6.6167    1.8992    1.6639 C   0  0  0  0  0  0  0  0  0  0  0  0
   -6.5988    2.9087    3.0916 S   0  0  0  0  0  0  0  0  0  0  0  0
   -5.9604    2.2464    0.4438 C   0  0  0  0  0  0  0  0  0  0  0  0
   -6.1569    1.6263   -0.7557 C   0  0  0  0  0  0  0  0  0  0  0  0
   -5.1827    1.9553   -1.7252 C   0  0  0  0  0  0  0  0  0  0  0  0
   -4.9934    1.3576   -2.9838 C   0  0  0  0  0  0  0  0  0  0  0  0
   -5.8677    0.2840   -3.4317 C   0  0  0  0  0  0  0  0  0  0  0  0
   -6.6885    0.3518   -4.9619 S   0  0  0  0  0  0  0  0  0  0  0  0
   -7.4626   -1.1743   -4.7044 C   0  0  0  0  0  0  0  0  0  0  0  0
   -8.4372   -1.7292   -5.6838 C   0  0  0  0  0  0  0  0  0  0  0  0
   -9.8670   -1.3189   -5.3220 C   0  0  0  0  0  0  0  0  0  0  0  0
   -7.0948   -1.6940   -3.4993 C   0  0  0  0  0  0  0  0  0  0  0  0
   -7.6606   -3.1943   -2.8930 Cl  0  0  0  0  0  0  0  0  0  0  0  0
   -6.1867   -0.8748   -2.7781 C   0  0  0  0  0  0  0  0  0  0  0  0
   -5.5142   -1.3643   -1.2742 Cl  0  0  0  0  0  0  0  0  0  0  0  0
   -3.8912    1.7723   -3.7136 C   0  0  0  0  0  0  0  0  0  0  0  0
   -2.9742    2.7439   -3.2390 C   0  0  0  0  0  0  0  0  0  0  0  0
   -3.1848    3.3704   -1.9956 C   0  0  0  0  0  0  0  0  0  0  0  0
   -2.2804    4.3860   -1.4851 C   0  0  0  0  0  0  0  0  0  0  0  0
   -0.5557    4.1529   -1.4370 S   0  0  0  0  0  0  0  0  0  0  0  0
   -0.2815    5.7017   -0.7202 C   0  0  0  0  0  0  0  0  0  0  0  0
    1.0936    6.2090   -0.4587 C   0  0  0  0  0  0  0  0  0  0  0  0
    1.5474    7.1405   -1.5855 C   0  0  0  0  0  0  0  0  0  0  0  0
   -1.4649    6.3528   -0.5377 C   0  0  0  0  0  0  0  0  0  0  0  0
   -2.5982    5.6113   -0.9640 C   0  0  0  0  0  0  0  0  0  0  0  0
   -4.1834    6.2593   -0.9093 Cl  0  0  0  0  0  0  0  0  0  0  0  0
   -1.5935    7.9210    0.1462 Cl  0  0  0  0  0  0  0  0  0  0  0  0
   -4.2764    2.9366   -1.2531 C   0  0  0  0  0  0  0  0  0  0  0  0
   -4.6318    3.3816    0.3924 S   0  0  0  0  0  0  0  0  0  0  0  0
   -1.8713    2.8863   -4.1086 C   0  0  0  0  0  0  0  0  0  0  0  0
   -1.9001    2.0502   -5.1912 C   0  0  0  0  0  0  0  0  0  0  0  0
   -3.3722    1.0937   -5.2326 S   0  0  0  0  0  0  0  0  0  0  0  0
   -0.8145    1.8234   -6.0782 C   0  0  0  0  0  0  0  0  0  0  0  0
    0.7710    2.2322   -5.5099 S   0  0  0  0  0  0  0  0  0  0  0  0
    1.5484    1.5034   -6.8811 C   0  0  0  0  0  0  0  0  0  0  0  0
    0.5952    1.0273   -7.7884 C   0  0  0  0  0  0  0  0  0  0  0  0
   -0.7465    1.1956   -7.3224 C   0  0  0  0  0  0  0  0  0  0  0  0
   -1.8167    0.7517   -8.1277 C   0  0  0  0  0  0  0  0  0  0  0  0
   -1.5822    0.1686   -9.3375 C   0  0  0  0  0  0  0  0  0  0  0  0
   -2.6925   -0.3032  -10.2185 C   0  0  0  0  0  0  0  0  0  0  0  0
   -0.2360    0.0066   -9.7994 C   0  0  0  0  0  0  0  0  0  0  0  0
   -0.1236   -0.5753  -11.0198 O   0  0  0  0  0  0  0  0  0  0  0  0
    1.1632   -0.7668  -11.5580 C   0  0  0  0  0  0  0  0  0  0  0  0
    0.8253    0.4281   -9.0412 C   0  0  0  0  0  0  0  0  0  0  0  0
    2.9598    1.3829   -6.8497 C   0  0  0  0  0  0  0  0  0  0  0  0
    3.7694    1.8286   -5.8370 C   0  0  0  0  0  0  0  0  0  0  0  0
    5.1235    1.4619   -5.9744 C   0  0  0  0  0  0  0  0  0  0  0  0
    6.1683    1.6729   -5.0552 C   0  0  0  0  0  0  0  0  0  0  0  0
    5.9687    2.4864   -3.8706 C   0  0  0  0  0  0  0  0  0  0  0  0
    6.4043    1.9074   -2.2892 S   0  0  0  0  0  0  0  0  0  0  0  0
    5.8627    3.3602   -1.5220 C   0  0  0  0  0  0  0  0  0  0  0  0
    6.0058    3.5557   -0.0532 C   0  0  0  0  0  0  0  0  0  0  0  0
    7.4233    4.0128    0.2995 C   0  0  0  0  0  0  0  0  0  0  0  0
    5.3881    4.2373   -2.4509 C   0  0  0  0  0  0  0  0  0  0  0  0
    4.7829    5.7947   -2.0699 Cl  0  0  0  0  0  0  0  0  0  0  0  0
    5.4385    3.7448   -3.7818 C   0  0  0  0  0  0  0  0  0  0  0  0
    4.9544    4.6892   -5.1315 Cl  0  0  0  0  0  0  0  0  0  0  0  0
    7.3703    1.0300   -5.3171 C   0  0  0  0  0  0  0  0  0  0  0  0
    7.5902    0.2490   -6.4778 C   0  0  0  0  0  0  0  0  0  0  0  0
    6.5706    0.1053   -7.4406 C   0  0  0  0  0  0  0  0  0  0  0  0
    6.7756   -0.6715   -8.6508 C   0  0  0  0  0  0  0  0  0  0  0  0
    7.4731   -2.2669   -8.6010 S   0  0  0  0  0  0  0  0  0  0  0  0
    7.3625   -2.4646  -10.3162 C   0  0  0  0  0  0  0  0  0  0  0  0
    7.8139   -3.7204  -10.9753 C   0  0  0  0  0  0  0  0  0  0  0  0
    6.7735   -4.8318  -10.8222 C   0  0  0  0  0  0  0  0  0  0  0  0
    6.8004   -1.3589  -10.8796 C   0  0  0  0  0  0  0  0  0  0  0  0
    6.4715   -0.3411   -9.9435 C   0  0  0  0  0  0  0  0  0  0  0  0
    5.8524    1.1781  -10.4391 Cl  0  0  0  0  0  0  0  0  0  0  0  0
    6.5177   -1.1794  -12.5634 Cl  0  0  0  0  0  0  0  0  0  0  0  0
    5.3519    0.7020   -7.1494 C   0  0  0  0  0  0  0  0  0  0  0  0
    3.8809    0.5092   -8.0601 S   0  0  0  0  0  0  0  0  0  0  0  0
    8.8870   -0.3144   -6.4895 C   0  0  0  0  0  0  0  0  0  0  0  0
    9.6271   -0.0068   -5.3856 C   0  0  0  0  0  0  0  0  0  0  0  0
    8.7774    1.0594   -4.2917 S   0  0  0  0  0  0  0  0  0  0  0  0
   10.9215   -0.5282   -5.0805 C   0  0  0  0  0  0  0  0  0  0  0  0
   11.4488   -1.6760   -5.5936 C   0  0  0  0  0  0  0  0  0  0  0  0
   12.7525   -1.9595   -5.1210 C   0  0  0  0  0  0  0  0  0  0  0  0
   13.5780   -3.0449   -5.4605 C   0  0  0  0  0  0  0  0  0  0  0  0
   13.1438   -4.0221   -6.4438 C   0  0  0  0  0  0  0  0  0  0  0  0
   13.1567   -5.7238   -6.0857 S   0  0  0  0  0  0  0  0  0  0  0  0
   12.4629   -6.1333   -7.6173 C   0  0  0  0  0  0  0  0  0  0  0  0
   12.2274   -7.5530   -7.9981 C   0  0  0  0  0  0  0  0  0  0  0  0
   13.5352   -8.2320   -8.4111 C   0  0  0  0  0  0  0  0  0  0  0  0
   12.2532   -5.0078   -8.3564 C   0  0  0  0  0  0  0  0  0  0  0  0
   11.5736   -5.0076   -9.9318 Cl  0  0  0  0  0  0  0  0  0  0  0  0
   12.6355   -3.8095   -7.6963 C   0  0  0  0  0  0  0  0  0  0  0  0
   12.5367   -2.2737   -8.4606 Cl  0  0  0  0  0  0  0  0  0  0  0  0
   14.7934   -3.1404   -4.7941 C   0  0  0  0  0  0  0  0  0  0  0  0
   15.2262   -2.1871   -3.8415 C   0  0  0  0  0  0  0  0  0  0  0  0
   14.4211   -1.0773   -3.5403 C   0  0  0  0  0  0  0  0  0  0  0  0
   14.8525   -0.0534   -2.6022 C   0  0  0  0  0  0  0  0  0  0  0  0
   13.8550    0.4157   -1.2585 S   0  0  0  0  0  0  0  0  0  0  0  0
   15.0023    1.5933   -0.7184 C   0  0  0  0  0  0  0  0  0  0  0  0
   14.7146    2.4565    0.4598 C   0  0  0  0  0  0  0  0  0  0  0  0
   13.7319    3.5703    0.0912 C   0  0  0  0  0  0  0  0  0  0  0  0
   16.0841    1.6167   -1.5471 C   0  0  0  0  0  0  0  0  0  0  0  0
   16.0059    0.6798   -2.6130 C   0  0  0  0  0  0  0  0  0  0  0  0
   17.2133    0.5565   -3.8268 Cl  0  0  0  0  0  0  0  0  0  0  0  0
   17.4279    2.6649   -1.3430 Cl  0  0  0  0  0  0  0  0  0  0  0  0
   13.1900   -0.9992   -4.1778 C   0  0  0  0  0  0  0  0  0  0  0  0
   12.0025    0.2547   -3.9509 S   0  0  0  0  0  0  0  0  0  0  0  0
   16.4898   -2.5405   -3.2832 C   0  0  0  0  0  0  0  0  0  0  0  0
   16.9951   -3.6746   -3.8081 C   0  0  0  0  0  0  0  0  0  0  0  0
   15.9775   -4.3994   -5.0053 S   0  0  0  0  0  0  0  0  0  0  0  0
   -9.9602   -5.5451   15.8143 H   0  0  0  0  0  0  0  0  0  0  0  0
   -9.3656   -3.0400   15.4364 H   0  0  0  0  0  0  0  0  0  0  0  0
   -6.7479    0.6300   16.8682 H   0  0  0  0  0  0  0  0  0  0  0  0
   -7.5265    2.1731   16.4654 H   0  0  0  0  0  0  0  0  0  0  0  0
   -5.1308    0.9600   14.9976 H   0  0  0  0  0  0  0  0  0  0  0  0
   -5.9015    2.4992   14.6010 H   0  0  0  0  0  0  0  0  0  0  0  0
   -5.0621    2.3042   16.1432 H   0  0  0  0  0  0  0  0  0  0  0  0
   -9.5410   -9.9290    9.6773 H   0  0  0  0  0  0  0  0  0  0  0  0
  -10.6959   -9.7750    8.3388 H   0  0  0  0  0  0  0  0  0  0  0  0
   -8.8976   -8.8165    6.9023 H   0  0  0  0  0  0  0  0  0  0  0  0
   -8.4374  -10.4119    7.5056 H   0  0  0  0  0  0  0  0  0  0  0  0
   -7.7489   -8.9576    8.2368 H   0  0  0  0  0  0  0  0  0  0  0  0
   -9.4512   -3.6909    8.3065 H   0  0  0  0  0  0  0  0  0  0  0  0
   -8.0465    0.8865    8.1364 H   0  0  0  0  0  0  0  0  0  0  0  0
   -4.5498    5.7549    7.7367 H   0  0  0  0  0  0  0  0  0  0  0  0
   -5.9151    6.4382    8.6416 H   0  0  0  0  0  0  0  0  0  0  0  0
   -5.0883    8.0354    6.9169 H   0  0  0  0  0  0  0  0  0  0  0  0
   -5.3918    6.8379    5.6525 H   0  0  0  0  0  0  0  0  0  0  0  0
   -6.7421    7.5301    6.5567 H   0  0  0  0  0  0  0  0  0  0  0  0
   -9.5827   -5.6746    0.8070 H   0  0  0  0  0  0  0  0  0  0  0  0
   -8.6165   -6.0103    2.2576 H   0  0  0  0  0  0  0  0  0  0  0  0
   -7.3640   -6.6105    0.1903 H   0  0  0  0  0  0  0  0  0  0  0  0
   -7.5208   -4.9524   -0.3963 H   0  0  0  0  0  0  0  0  0  0  0  0
   -6.5564   -5.2895    1.0436 H   0  0  0  0  0  0  0  0  0  0  0  0
   -7.2617   -0.0805    1.1484 H   0  0  0  0  0  0  0  0  0  0  0  0
   -6.9695    0.9487   -0.9360 H   0  0  0  0  0  0  0  0  0  0  0  0
   -8.3604   -2.8187   -5.6792 H   0  0  0  0  0  0  0  0  0  0  0  0
   -8.1931   -1.3648   -6.6827 H   0  0  0  0  0  0  0  0  0  0  0  0
  -10.1252   -1.6856   -4.3317 H   0  0  0  0  0  0  0  0  0  0  0  0
   -9.9622   -0.2358   -5.3272 H   0  0  0  0  0  0  0  0  0  0  0  0
  -10.5680   -1.7349   -6.0405 H   0  0  0  0  0  0  0  0  0  0  0  0
    1.7832    5.3674   -0.3792 H   0  0  0  0  0  0  0  0  0  0  0  0
    1.0957    6.7568    0.4861 H   0  0  0  0  0  0  0  0  0  0  0  0
    1.5770    6.6040   -2.5307 H   0  0  0  0  0  0  0  0  0  0  0  0
    0.8624    7.9788   -1.6811 H   0  0  0  0  0  0  0  0  0  0  0  0
    2.5407    7.5254   -1.3728 H   0  0  0  0  0  0  0  0  0  0  0  0
   -1.0540    3.5616   -3.9345 H   0  0  0  0  0  0  0  0  0  0  0  0
   -2.8295    0.8883   -7.7811 H   0  0  0  0  0  0  0  0  0  0  0  0
   -2.5809   -1.3672  -10.4208 H   0  0  0  0  0  0  0  0  0  0  0  0
   -3.6575   -0.1244   -9.7530 H   0  0  0  0  0  0  0  0  0  0  0  0
   -2.6527    0.2127  -11.1766 H   0  0  0  0  0  0  0  0  0  0  0  0
    1.7721   -1.4162  -10.9213 H   0  0  0  0  0  0  0  0  0  0  0  0
    1.0100   -1.2462  -12.5235 H   0  0  0  0  0  0  0  0  0  0  0  0
    1.6832    0.1849  -11.7038 H   0  0  0  0  0  0  0  0  0  0  0  0
    1.8377    0.3248   -9.3909 H   0  0  0  0  0  0  0  0  0  0  0  0
    3.3819    2.3635   -4.9891 H   0  0  0  0  0  0  0  0  0  0  0  0
    5.2852    4.3079    0.2729 H   0  0  0  0  0  0  0  0  0  0  0  0
    5.7897    2.6170    0.4600 H   0  0  0  0  0  0  0  0  0  0  0  0
    7.5157    4.1468    1.3739 H   0  0  0  0  0  0  0  0  0  0  0  0
    8.1494    3.2716   -0.0255 H   0  0  0  0  0  0  0  0  0  0  0  0
    7.6475    4.9571   -0.1901 H   0  0  0  0  0  0  0  0  0  0  0  0
    8.7562   -4.0443  -10.5291 H   0  0  0  0  0  0  0  0  0  0  0  0
    7.9816   -3.5165  -12.0342 H   0  0  0  0  0  0  0  0  0  0  0  0
    6.5959   -5.0394   -9.7695 H   0  0  0  0  0  0  0  0  0  0  0  0
    5.8340   -4.5355  -11.2823 H   0  0  0  0  0  0  0  0  0  0  0  0
    7.1260   -5.7401  -11.3030 H   0  0  0  0  0  0  0  0  0  0  0  0
    9.2679   -0.9214   -7.2883 H   0  0  0  0  0  0  0  0  0  0  0  0
   10.9026   -2.3197   -6.2565 H   0  0  0  0  0  0  0  0  0  0  0  0
   11.5188   -7.5801   -8.8277 H   0  0  0  0  0  0  0  0  0  0  0  0
   11.7947   -8.0886   -7.1510 H   0  0  0  0  0  0  0  0  0  0  0  0
   14.2472   -8.2074   -7.5897 H   0  0  0  0  0  0  0  0  0  0  0  0
   13.3488   -9.2675   -8.6823 H   0  0  0  0  0  0  0  0  0  0  0  0
   13.9727   -7.7214   -9.2653 H   0  0  0  0  0  0  0  0  0  0  0  0
   14.2878    1.8486    1.2599 H   0  0  0  0  0  0  0  0  0  0  0  0
   15.6513    2.8914    0.8122 H   0  0  0  0  0  0  0  0  0  0  0  0
   13.5266    4.1899    0.9599 H   0  0  0  0  0  0  0  0  0  0  0  0
   14.1490    4.1967   -0.6932 H   0  0  0  0  0  0  0  0  0  0  0  0
   12.7968    3.1444   -0.2651 H   0  0  0  0  0  0  0  0  0  0  0  0
   16.9789   -1.9685   -2.5168 H   0  0  0  0  0  0  0  0  0  0  0  0
   17.9224   -4.1562   -3.5669 H   0  0  0  0  0  0  0  0  0  0  0  0
  1  2  2  0  0  0  0
  2  3  1  0  0  0  0
  3  4  2  0  0  0  0
  4  5  1  0  0  0  0
  5  6  1  0  0  0  0
  6  7  1  0  0  0  0
  7  8  1  0  0  0  0
  8  9  1  0  0  0  0
  7 10  2  0  0  0  0
 10 11  1  0  0  0  0
 10 12  1  0  0  0  0
 12 13  1  0  0  0  0
  4 14  1  0  0  0  0
 14 15  2  0  0  0  0
 15 16  1  0  0  0  0
 16 17  1  0  0  0  0
 17 18  1  0  0  0  0
 18 19  1  0  0  0  0
 19 20  1  0  0  0  0
 20 21  1  0  0  0  0
 19 22  2  0  0  0  0
 22 23  1  0  0  0  0
 23 24  1  0  0  0  0
 22 25  1  0  0  0  0
 16 26  2  0  0  0  0
 26 27  1  0  0  0  0
 15 28  1  0  0  0  0
 28 29  2  0  0  0  0
 29 30  1  0  0  0  0
 29 31  1  0  0  0  0
 31 32  2  0  0  0  0
 32 33  1  0  0  0  0
 33 34  2  0  0  0  0
 34 35  1  0  0  0  0
 35 36  1  0  0  0  0
 36 37  1  0  0  0  0
 37 38  1  0  0  0  0
 38 39  1  0  0  0  0
 37 40  2  0  0  0  0
 40 41  1  0  0  0  0
 40 42  1  0  0  0  0
 42 43  1  0  0  0  0
 34 44  1  0  0  0  0
 44 45  2  0  0  0  0
 45 46  1  0  0  0  0
 46 47  1  0  0  0  0
 47 48  1  0  0  0  0
 48 49  1  0  0  0  0
 49 50  1  0  0  0  0
 50 51  1  0  0  0  0
 49 52  2  0  0  0  0
 52 53  1  0  0  0  0
 53 54  1  0  0  0  0
 52 55  1  0  0  0  0
 46 56  2  0  0  0  0
 56 57  1  0  0  0  0
 45 58  1  0  0  0  0
 58 59  2  0  0  0  0
 59 60  1  0  0  0  0
 59 61  1  0  0  0  0
 61 62  2  0  0  0  0
 62 63  1  0  0  0  0
 63 64  2  0  0  0  0
 64 65  1  0  0  0  0
 65 66  1  0  0  0  0
 66 67  1  0  0  0  0
 67 68  1  0  0  0  0
 68 69  1  0  0  0  0
 67 70  2  0  0  0  0
 70 71  1  0  0  0  0
 70 72  1  0  0  0  0
 72 73  1  0  0  0  0
 64 74  1  0  0  0  0
 74 75  2  0  0  0  0
 75 76  1  0  0  0  0
 76 77  1  0  0  0  0
 77 78  1  0  0  0  0
 78 79  1  0  0  0  0
 79 80  1  0  0  0  0
 80 81  1  0  0  0  0
 79 82  2  0  0  0  0
 82 83  1  0  0  0  0
 83 84  1  0  0  0  0
 82 85  1  0  0  0  0
 76 86  2  0  0  0  0
 86 87  1  0  0  0  0
 75 88  1  0  0  0  0
 88 89  2  0  0  0  0
 89 90  1  0  0  0  0
 89 91  1  0  0  0  0
 91 92  1  0  0  0  0
 92 93  1  0  0  0  0
 93 94  2  0  0  0  0
 94 95  1  0  0  0  0
 95 96  1  0  0  0  0
 96 97  2  0  0  0  0
 97 98  1  0  0  0  0
 97 99  1  0  0  0  0
 99100  1  0  0  0  0
100101  1  0  0  0  0
 99102  2  0  0  0  0
 93103  1  0  0  0  0
103104  2  0  0  0  0
104105  1  0  0  0  0
105106  2  0  0  0  0
106107  1  0  0  0  0
107108  1  0  0  0  0
108109  1  0  0  0  0
109110  1  0  0  0  0
110111  1  0  0  0  0
109112  2  0  0  0  0
112113  1  0  0  0  0
112114  1  0  0  0  0
114115  1  0  0  0  0
106116  1  0  0  0  0
116117  2  0  0  0  0
117118  1  0  0  0  0
118119  1  0  0  0  0
119120  1  0  0  0  0
120121  1  0  0  0  0
121122  1  0  0  0  0
122123  1  0  0  0  0
121124  2  0  0  0  0
124125  1  0  0  0  0
125126  1  0  0  0  0
124127  1  0  0  0  0
118128  2  0  0  0  0
128129  1  0  0  0  0
117130  1  0  0  0  0
130131  2  0  0  0  0
131132  1  0  0  0  0
131133  1  0  0  0  0
133134  2  0  0  0  0
134135  1  0  0  0  0
135136  2  0  0  0  0
136137  1  0  0  0  0
137138  1  0  0  0  0
138139  1  0  0  0  0
139140  1  0  0  0  0
140141  1  0  0  0  0
139142  2  0  0  0  0
142143  1  0  0  0  0
142144  1  0  0  0  0
144145  1  0  0  0  0
136146  1  0  0  0  0
146147  2  0  0  0  0
147148  1  0  0  0  0
148149  1  0  0  0  0
149150  1  0  0  0  0
150151  1  0  0  0  0
151152  1  0  0  0  0
152153  1  0  0  0  0
151154  2  0  0  0  0
154155  1  0  0  0  0
155156  1  0  0  0  0
154157  1  0  0  0  0
148158  2  0  0  0  0
158159  1  0  0  0  0
147160  1  0  0  0  0
160161  2  0  0  0  0
161162  1  0  0  0  0
 27  1  1  0  0  0  0
 57 31  1  0  0  0  0
 87 61  1  0  0  0  0
 95 91  2  0  0  0  0
129103  1  0  0  0  0
159133  1  0  0  0  0
 26  3  1  0  0  0  0
 56 33  1  0  0  0  0
 86 63  1  0  0  0  0
102 94  1  0  0  0  0
128105  1  0  0  0  0
158135  1  0  0  0  0
 12  5  2  0  0  0  0
 30 14  1  0  0  0  0
 42 35  2  0  0  0  0
 60 44  1  0  0  0  0
 72 65  2  0  0  0  0
 90 74  1  0  0  0  0
114107  2  0  0  0  0
132116  1  0  0  0  0
144137  2  0  0  0  0
162146  1  0  0  0  0
 23 17  2  0  0  0  0
 53 47  2  0  0  0  0
 83 77  2  0  0  0  0
125119  2  0  0  0  0
155149  2  0  0  0  0
  1163  1  0  0  0  0
  2164  1  0  0  0  0
  8165  1  0  0  0  0
  8166  1  0  0  0  0
  9167  1  0  0  0  0
  9168  1  0  0  0  0
  9169  1  0  0  0  0
 20170  1  0  0  0  0
 20171  1  0  0  0  0
 21172  1  0  0  0  0
 21173  1  0  0  0  0
 21174  1  0  0  0  0
 28175  1  0  0  0  0
 32176  1  0  0  0  0
 38177  1  0  0  0  0
 38178  1  0  0  0  0
 39179  1  0  0  0  0
 39180  1  0  0  0  0
 39181  1  0  0  0  0
 50182  1  0  0  0  0
 50183  1  0  0  0  0
 51184  1  0  0  0  0
 51185  1  0  0  0  0
 51186  1  0  0  0  0
 58187  1  0  0  0  0
 62188  1  0  0  0  0
 68189  1  0  0  0  0
 68190  1  0  0  0  0
 69191  1  0  0  0  0
 69192  1  0  0  0  0
 69193  1  0  0  0  0
 80194  1  0  0  0  0
 80195  1  0  0  0  0
 81196  1  0  0  0  0
 81197  1  0  0  0  0
 81198  1  0  0  0  0
 88199  1  0  0  0  0
 96200  1  0  0  0  0
 98201  1  0  0  0  0
 98202  1  0  0  0  0
 98203  1  0  0  0  0
101204  1  0  0  0  0
101205  1  0  0  0  0
101206  1  0  0  0  0
102207  1  0  0  0  0
104208  1  0  0  0  0
110209  1  0  0  0  0
110210  1  0  0  0  0
111211  1  0  0  0  0
111212  1  0  0  0  0
111213  1  0  0  0  0
122214  1  0  0  0  0
122215  1  0  0  0  0
123216  1  0  0  0  0
123217  1  0  0  0  0
123218  1  0  0  0  0
130219  1  0  0  0  0
134220  1  0  0  0  0
140221  1  0  0  0  0
140222  1  0  0  0  0
141223  1  0  0  0  0
141224  1  0  0  0  0
141225  1  0  0  0  0
152226  1  0  0  0  0
152227  1  0  0  0  0
153228  1  0  0  0  0
153229  1  0  0  0  0
153230  1  0  0  0  0
160231  1  0  0  0  0
161232  1  0  0  0  0
M  END
