
  xtb     03042204003D
 energy: -213.623164667212 gnorm: 0.000580118697 xtb: 6.4.1 (unknown)
118129  0     0  0            999 V2000
   -5.6069   -3.6303   -4.0972 C   0  0  0  0  0  0  0  0  0  0  0  0
   -6.5738   -3.6891   -2.6880 S   0  0  0  0  0  0  0  0  0  0  0  0
   -5.5192   -2.6231   -1.8187 C   0  0  0  0  0  0  0  0  0  0  0  0
   -4.4646   -2.2038   -2.6438 C   0  0  0  0  0  0  0  0  0  0  0  0
   -4.5076   -2.8132   -3.9462 C   0  0  0  0  0  0  0  0  0  0  0  0
   -3.4730   -2.5525   -4.8738 C   0  0  0  0  0  0  0  0  0  0  0  0
   -2.4761   -1.6753   -4.5356 C   0  0  0  0  0  0  0  0  0  0  0  0
   -1.3811   -1.4241   -5.3914 C   0  0  0  0  0  0  0  0  0  0  0  0
   -0.4596   -1.2249   -6.0440 N   0  0  0  0  0  0  0  0  0  0  0  0
   -2.4975   -0.9886   -3.2764 C   0  0  0  0  0  0  0  0  0  0  0  0
   -1.5270   -0.0034   -3.0174 C   0  0  0  0  0  0  0  0  0  0  0  0
   -0.7604    0.8262   -2.8142 N   0  0  0  0  0  0  0  0  0  0  0  0
   -3.4692   -1.2641   -2.3442 C   0  0  0  0  0  0  0  0  0  0  0  0
   -5.6526   -2.3185   -0.4477 C   0  0  0  0  0  0  0  0  0  0  0  0
   -6.7411   -2.4886    0.3492 C   0  0  0  0  0  0  0  0  0  0  0  0
   -6.6574   -2.2147    1.7380 C   0  0  0  0  0  0  0  0  0  0  0  0
   -7.9128   -1.3726    2.5990 S   0  0  0  0  0  0  0  0  0  0  0  0
   -6.8888   -1.0733    3.9780 C   0  0  0  0  0  0  0  0  0  0  0  0
   -5.6893   -1.7877    3.8482 C   0  0  0  0  0  0  0  0  0  0  0  0
   -5.5411   -2.4012    2.5650 C   0  0  0  0  0  0  0  0  0  0  0  0
   -4.3869   -3.1523    2.2864 C   0  0  0  0  0  0  0  0  0  0  0  0
   -3.3899   -3.2525    3.2299 C   0  0  0  0  0  0  0  0  0  0  0  0
   -2.2097   -3.9627    2.9154 C   0  0  0  0  0  0  0  0  0  0  0  0
   -1.2601   -4.5266    2.6083 N   0  0  0  0  0  0  0  0  0  0  0  0
   -3.5441   -2.6501    4.5156 C   0  0  0  0  0  0  0  0  0  0  0  0
   -2.5141   -2.7766    5.4727 C   0  0  0  0  0  0  0  0  0  0  0  0
   -1.6814   -2.8569    6.2565 N   0  0  0  0  0  0  0  0  0  0  0  0
   -4.6897   -1.9498    4.8219 C   0  0  0  0  0  0  0  0  0  0  0  0
   -7.2857   -0.1619    4.9856 C   0  0  0  0  0  0  0  0  0  0  0  0
   -6.5020    0.7697    5.6143 C   0  0  0  0  0  0  0  0  0  0  0  0
   -5.2065    1.2166    5.2961 C   0  0  0  0  0  0  0  0  0  0  0  0
   -4.3300    0.7216    3.8771 S   0  0  0  0  0  0  0  0  0  0  0  0
   -2.9571    1.7341    4.2123 C   0  0  0  0  0  0  0  0  0  0  0  0
   -3.2013    2.4980    5.3766 C   0  0  0  0  0  0  0  0  0  0  0  0
   -4.4617    2.2008    5.9849 C   0  0  0  0  0  0  0  0  0  0  0  0
   -4.8320    2.8699    7.1602 C   0  0  0  0  0  0  0  0  0  0  0  0
   -3.9905    3.8148    7.7054 C   0  0  0  0  0  0  0  0  0  0  0  0
   -4.3786    4.5006    8.8791 C   0  0  0  0  0  0  0  0  0  0  0  0
   -4.7227    5.0442    9.8273 N   0  0  0  0  0  0  0  0  0  0  0  0
   -2.7378    4.1114    7.0950 C   0  0  0  0  0  0  0  0  0  0  0  0
   -1.9024    5.0953    7.6697 C   0  0  0  0  0  0  0  0  0  0  0  0
   -1.2223    5.8997    8.1212 N   0  0  0  0  0  0  0  0  0  0  0  0
   -2.3508    3.4506    5.9477 C   0  0  0  0  0  0  0  0  0  0  0  0
   -1.8199    1.6665    3.4062 C   0  0  0  0  0  0  0  0  0  0  0  0
   -1.6889    0.7434    2.3942 C   0  0  0  0  0  0  0  0  0  0  0  0
   -0.6106    0.5963    1.5279 C   0  0  0  0  0  0  0  0  0  0  0  0
    0.7538    1.6777    1.5238 S   0  0  0  0  0  0  0  0  0  0  0  0
    1.4831    0.9003    0.1529 C   0  0  0  0  0  0  0  0  0  0  0  0
    0.7228   -0.2195   -0.2506 C   0  0  0  0  0  0  0  0  0  0  0  0
   -0.4500   -0.3931    0.5293 C   0  0  0  0  0  0  0  0  0  0  0  0
   -1.2673   -1.5103    0.2955 C   0  0  0  0  0  0  0  0  0  0  0  0
   -0.9487   -2.4258   -0.6720 C   0  0  0  0  0  0  0  0  0  0  0  0
   -1.7651   -3.6581   -0.8935 C   0  0  0  0  0  0  0  0  0  0  0  0
    0.2236   -2.2348   -1.4598 C   0  0  0  0  0  0  0  0  0  0  0  0
    0.4258   -3.1692   -2.4233 O   0  0  0  0  0  0  0  0  0  0  0  0
    1.5125   -3.0041   -3.3051 C   0  0  0  0  0  0  0  0  0  0  0  0
    1.0602   -1.1687   -1.2281 C   0  0  0  0  0  0  0  0  0  0  0  0
    2.7069    1.3697   -0.3553 C   0  0  0  0  0  0  0  0  0  0  0  0
    3.8899    2.0264    0.7338 S   0  0  0  0  0  0  0  0  0  0  0  0
    5.0930    2.2053   -0.5163 C   0  0  0  0  0  0  0  0  0  0  0  0
    4.5371    1.8530   -1.7683 C   0  0  0  0  0  0  0  0  0  0  0  0
    3.1909    1.3979   -1.6749 C   0  0  0  0  0  0  0  0  0  0  0  0
    2.4597    1.1368   -2.8493 C   0  0  0  0  0  0  0  0  0  0  0  0
    3.0524    1.2315   -4.0769 C   0  0  0  0  0  0  0  0  0  0  0  0
    2.3023    0.9576   -5.3377 C   0  0  0  0  0  0  0  0  0  0  0  0
    4.4193    1.6324   -4.1650 C   0  0  0  0  0  0  0  0  0  0  0  0
    4.9112    1.6952   -5.4254 O   0  0  0  0  0  0  0  0  0  0  0  0
    6.2444    2.1010   -5.6182 C   0  0  0  0  0  0  0  0  0  0  0  0
    5.1338    1.9598   -3.0357 C   0  0  0  0  0  0  0  0  0  0  0  0
    6.4153    2.5637   -0.1993 C   0  0  0  0  0  0  0  0  0  0  0  0
    7.7172    2.2497   -1.3136 S   0  0  0  0  0  0  0  0  0  0  0  0
    8.9445    2.7886   -0.2202 C   0  0  0  0  0  0  0  0  0  0  0  0
    8.3688    3.2173    0.9777 C   0  0  0  0  0  0  0  0  0  0  0  0
    6.9379    3.1020    0.9975 C   0  0  0  0  0  0  0  0  0  0  0  0
    6.2331    3.5479    2.1249 C   0  0  0  0  0  0  0  0  0  0  0  0
    6.9126    4.0486    3.2129 C   0  0  0  0  0  0  0  0  0  0  0  0
    6.1968    4.4975    4.3447 C   0  0  0  0  0  0  0  0  0  0  0  0
    5.6030    4.8589    5.2561 N   0  0  0  0  0  0  0  0  0  0  0  0
    8.3386    4.1235    3.2071 C   0  0  0  0  0  0  0  0  0  0  0  0
    9.0203    4.6253    4.3395 C   0  0  0  0  0  0  0  0  0  0  0  0
    9.5989    5.0252    5.2441 N   0  0  0  0  0  0  0  0  0  0  0  0
    9.0480    3.7232    2.1022 C   0  0  0  0  0  0  0  0  0  0  0  0
   10.3265    2.7696   -0.5773 C   0  0  0  0  0  0  0  0  0  0  0  0
   10.8062    2.3482   -1.7499 C   0  0  0  0  0  0  0  0  0  0  0  0
   -5.8915   -4.1974   -4.9605 H   0  0  0  0  0  0  0  0  0  0  0  0
   -3.4705   -3.0475   -5.8332 H   0  0  0  0  0  0  0  0  0  0  0  0
   -3.4634   -0.7416   -1.4002 H   0  0  0  0  0  0  0  0  0  0  0  0
   -4.7734   -1.8710   -0.0020 H   0  0  0  0  0  0  0  0  0  0  0  0
   -7.6987   -2.7553   -0.0763 H   0  0  0  0  0  0  0  0  0  0  0  0
   -4.2905   -3.6739    1.3461 H   0  0  0  0  0  0  0  0  0  0  0  0
   -4.8239   -1.5338    5.8091 H   0  0  0  0  0  0  0  0  0  0  0  0
   -8.3425   -0.1491    5.2204 H   0  0  0  0  0  0  0  0  0  0  0  0
   -6.9751    1.3157    6.4206 H   0  0  0  0  0  0  0  0  0  0  0  0
   -5.7739    2.6587    7.6432 H   0  0  0  0  0  0  0  0  0  0  0  0
   -1.3990    3.6782    5.4929 H   0  0  0  0  0  0  0  0  0  0  0  0
   -1.0053    2.3476    3.6091 H   0  0  0  0  0  0  0  0  0  0  0  0
   -2.5071    0.0482    2.2470 H   0  0  0  0  0  0  0  0  0  0  0  0
   -2.1434   -1.6681    0.9072 H   0  0  0  0  0  0  0  0  0  0  0  0
   -1.2819   -4.5003   -0.3988 H   0  0  0  0  0  0  0  0  0  0  0  0
   -1.8300   -3.8899   -1.9540 H   0  0  0  0  0  0  0  0  0  0  0  0
   -2.7642   -3.5473   -0.4820 H   0  0  0  0  0  0  0  0  0  0  0  0
    2.4692   -3.0684   -2.7787 H   0  0  0  0  0  0  0  0  0  0  0  0
    1.4378   -3.8241   -4.0173 H   0  0  0  0  0  0  0  0  0  0  0  0
    1.4511   -2.0519   -3.8412 H   0  0  0  0  0  0  0  0  0  0  0  0
    1.9773   -1.0506   -1.7781 H   0  0  0  0  0  0  0  0  0  0  0  0
    1.4088    0.9054   -2.7786 H   0  0  0  0  0  0  0  0  0  0  0  0
    1.2723    0.6842   -5.1276 H   0  0  0  0  0  0  0  0  0  0  0  0
    2.7806    0.1514   -5.8915 H   0  0  0  0  0  0  0  0  0  0  0  0
    2.3156    1.8376   -5.9783 H   0  0  0  0  0  0  0  0  0  0  0  0
    6.4048    3.1292   -5.2789 H   0  0  0  0  0  0  0  0  0  0  0  0
    6.4155    2.0460   -6.6919 H   0  0  0  0  0  0  0  0  0  0  0  0
    6.9447    1.4353   -5.1038 H   0  0  0  0  0  0  0  0  0  0  0  0
    6.1376    2.3363   -3.1188 H   0  0  0  0  0  0  0  0  0  0  0  0
    5.1559    3.5210    2.1532 H   0  0  0  0  0  0  0  0  0  0  0  0
   10.1244    3.8001    2.1006 H   0  0  0  0  0  0  0  0  0  0  0  0
   11.0082    3.1296    0.1811 H   0  0  0  0  0  0  0  0  0  0  0  0
   10.1550    1.9831   -2.5270 H   0  0  0  0  0  0  0  0  0  0  0  0
   11.8595    2.3581   -1.9627 H   0  0  0  0  0  0  0  0  0  0  0  0
  1  2  1  0  0  0  0
  2  3  1  0  0  0  0
  3  4  2  0  0  0  0
  4  5  1  0  0  0  0
  5  6  1  0  0  0  0
  6  7  2  0  0  0  0
  7  8  1  0  0  0  0
  8  9  3  0  0  0  0
  7 10  1  0  0  0  0
 10 11  1  0  0  0  0
 11 12  3  0  0  0  0
 10 13  2  0  0  0  0
  3 14  1  0  0  0  0
 14 15  2  0  0  0  0
 15 16  1  0  0  0  0
 16 17  1  0  0  0  0
 17 18  1  0  0  0  0
 18 19  2  0  0  0  0
 19 20  1  0  0  0  0
 20 21  1  0  0  0  0
 21 22  2  0  0  0  0
 22 23  1  0  0  0  0
 23 24  3  0  0  0  0
 22 25  1  0  0  0  0
 25 26  1  0  0  0  0
 26 27  3  0  0  0  0
 25 28  2  0  0  0  0
 18 29  1  0  0  0  0
 29 30  2  0  0  0  0
 30 31  1  0  0  0  0
 31 32  1  0  0  0  0
 32 33  1  0  0  0  0
 33 34  2  0  0  0  0
 34 35  1  0  0  0  0
 35 36  1  0  0  0  0
 36 37  2  0  0  0  0
 37 38  1  0  0  0  0
 38 39  3  0  0  0  0
 37 40  1  0  0  0  0
 40 41  1  0  0  0  0
 41 42  3  0  0  0  0
 40 43  2  0  0  0  0
 33 44  1  0  0  0  0
 44 45  2  0  0  0  0
 45 46  1  0  0  0  0
 46 47  1  0  0  0  0
 47 48  1  0  0  0  0
 48 49  2  0  0  0  0
 49 50  1  0  0  0  0
 50 51  1  0  0  0  0
 51 52  2  0  0  0  0
 52 53  1  0  0  0  0
 52 54  1  0  0  0  0
 54 55  1  0  0  0  0
 55 56  1  0  0  0  0
 54 57  2  0  0  0  0
 48 58  1  0  0  0  0
 58 59  1  0  0  0  0
 59 60  1  0  0  0  0
 60 61  2  0  0  0  0
 61 62  1  0  0  0  0
 62 63  1  0  0  0  0
 63 64  2  0  0  0  0
 64 65  1  0  0  0  0
 64 66  1  0  0  0  0
 66 67  1  0  0  0  0
 67 68  1  0  0  0  0
 66 69  2  0  0  0  0
 60 70  1  0  0  0  0
 70 71  1  0  0  0  0
 71 72  1  0  0  0  0
 72 73  2  0  0  0  0
 73 74  1  0  0  0  0
 74 75  1  0  0  0  0
 75 76  2  0  0  0  0
 76 77  1  0  0  0  0
 77 78  3  0  0  0  0
 76 79  1  0  0  0  0
 79 80  1  0  0  0  0
 80 81  3  0  0  0  0
 79 82  2  0  0  0  0
 72 83  1  0  0  0  0
 83 84  2  0  0  0  0
  5  1  2  0  0  0  0
 20 16  2  0  0  0  0
 35 31  2  0  0  0  0
 50 46  2  0  0  0  0
 62 58  2  0  0  0  0
 74 70  2  0  0  0  0
 13  4  1  0  0  0  0
 28 19  1  0  0  0  0
 43 34  1  0  0  0  0
 57 49  1  0  0  0  0
 69 61  1  0  0  0  0
 82 73  1  0  0  0  0
  1 85  1  0  0  0  0
  6 86  1  0  0  0  0
 13 87  1  0  0  0  0
 14 88  1  0  0  0  0
 15 89  1  0  0  0  0
 21 90  1  0  0  0  0
 28 91  1  0  0  0  0
 29 92  1  0  0  0  0
 30 93  1  0  0  0  0
 36 94  1  0  0  0  0
 43 95  1  0  0  0  0
 44 96  1  0  0  0  0
 45 97  1  0  0  0  0
 51 98  1  0  0  0  0
 53 99  1  0  0  0  0
 53100  1  0  0  0  0
 53101  1  0  0  0  0
 56102  1  0  0  0  0
 56103  1  0  0  0  0
 56104  1  0  0  0  0
 57105  1  0  0  0  0
 63106  1  0  0  0  0
 65107  1  0  0  0  0
 65108  1  0  0  0  0
 65109  1  0  0  0  0
 68110  1  0  0  0  0
 68111  1  0  0  0  0
 68112  1  0  0  0  0
 69113  1  0  0  0  0
 75114  1  0  0  0  0
 82115  1  0  0  0  0
 83116  1  0  0  0  0
 84117  1  0  0  0  0
 84118  1  0  0  0  0
M  END
