
  xtb     03042210273D
 energy: -361.525054286427 gnorm: 0.000390973295 xtb: 6.4.1 (unknown)
212232  0     0  0            999 V2000
    8.6019   -8.5761   11.5232 C   0  0  0  0  0  0  0  0  0  0  0  0
    8.5462   -8.9985   10.2444 C   0  0  0  0  0  0  0  0  0  0  0  0
    7.7486   -8.1558    9.4139 C   0  0  0  0  0  0  0  0  0  0  0  0
    7.4652   -8.2995    8.0473 C   0  0  0  0  0  0  0  0  0  0  0  0
    7.9472   -9.4520    7.2750 C   0  0  0  0  0  0  0  0  0  0  0  0
    7.7181  -10.7526    7.7132 C   0  0  0  0  0  0  0  0  0  0  0  0
    8.1521  -11.8416    6.9815 C   0  0  0  0  0  0  0  0  0  0  0  0
    8.8306  -11.6671    5.7810 C   0  0  0  0  0  0  0  0  0  0  0  0
    9.4617  -12.9602    4.7624 S   0  0  0  0  0  0  0  0  0  0  0  0
    8.6108  -14.4601    5.3634 C   0  0  0  0  0  0  0  0  0  0  0  0
    7.1342  -14.4628    5.0161 C   0  0  0  0  0  0  0  0  0  0  0  0
    9.0599  -10.3568    5.3578 C   0  0  0  0  0  0  0  0  0  0  0  0
    9.7293  -10.1505    4.2060 F   0  0  0  0  0  0  0  0  0  0  0  0
    8.6306   -9.2638    6.0757 C   0  0  0  0  0  0  0  0  0  0  0  0
    6.6948   -7.3063    7.4634 C   0  0  0  0  0  0  0  0  0  0  0  0
    6.1696   -6.2046    8.1836 C   0  0  0  0  0  0  0  0  0  0  0  0
    6.4253   -6.0797    9.5592 C   0  0  0  0  0  0  0  0  0  0  0  0
    5.8478   -4.9858   10.3492 C   0  0  0  0  0  0  0  0  0  0  0  0
    4.4793   -4.7187   10.3035 C   0  0  0  0  0  0  0  0  0  0  0  0
    3.9341   -3.7101   11.0670 C   0  0  0  0  0  0  0  0  0  0  0  0
    4.7272   -2.9184   11.8972 C   0  0  0  0  0  0  0  0  0  0  0  0
    3.9193   -1.6337   12.7990 S   0  0  0  0  0  0  0  0  0  0  0  0
    4.8855   -1.5155   14.3581 C   0  0  0  0  0  0  0  0  0  0  0  0
    3.9959   -0.9381   15.4413 C   0  0  0  0  0  0  0  0  0  0  0  0
    6.0940   -3.1788   11.9129 C   0  0  0  0  0  0  0  0  0  0  0  0
    6.6498   -4.2007   11.1700 C   0  0  0  0  0  0  0  0  0  0  0  0
    6.9352   -2.4226   12.6548 F   0  0  0  0  0  0  0  0  0  0  0  0
    7.2300   -7.0537   10.1339 C   0  0  0  0  0  0  0  0  0  0  0  0
    7.7015   -7.1258   11.8136 S   0  0  0  0  0  0  0  0  0  0  0  0
    5.4287   -5.3285    7.3518 C   0  0  0  0  0  0  0  0  0  0  0  0
    5.3510   -5.7367    6.0496 C   0  0  0  0  0  0  0  0  0  0  0  0
    6.2007   -7.2564    5.7926 S   0  0  0  0  0  0  0  0  0  0  0  0
    4.6842   -5.1321    4.9509 C   0  0  0  0  0  0  0  0  0  0  0  0
    4.1709   -6.1292    3.6327 S   0  0  0  0  0  0  0  0  0  0  0  0
    3.4319   -4.8056    2.7796 C   0  0  0  0  0  0  0  0  0  0  0  0
    3.6331   -3.6067    3.4962 C   0  0  0  0  0  0  0  0  0  0  0  0
    4.3401   -3.7967    4.7222 C   0  0  0  0  0  0  0  0  0  0  0  0
    4.6544   -2.6743    5.5177 C   0  0  0  0  0  0  0  0  0  0  0  0
    4.2660   -1.4202    5.1490 C   0  0  0  0  0  0  0  0  0  0  0  0
    4.5808   -0.2152    5.9743 C   0  0  0  0  0  0  0  0  0  0  0  0
    3.5530   -1.2351    3.9245 C   0  0  0  0  0  0  0  0  0  0  0  0
    3.2300    0.0505    3.6450 O   0  0  0  0  0  0  0  0  0  0  0  0
    2.5286    0.3331    2.4560 C   0  0  0  0  0  0  0  0  0  0  0  0
    3.2602   -2.3051    3.1156 C   0  0  0  0  0  0  0  0  0  0  0  0
    2.6929   -5.0291    1.6012 C   0  0  0  0  0  0  0  0  0  0  0  0
    1.5682   -3.8333    1.0288 S   0  0  0  0  0  0  0  0  0  0  0  0
    0.9892   -4.8340   -0.2678 C   0  0  0  0  0  0  0  0  0  0  0  0
    1.6991   -6.0407   -0.2997 C   0  0  0  0  0  0  0  0  0  0  0  0
    2.6460   -6.1612    0.7614 C   0  0  0  0  0  0  0  0  0  0  0  0
    3.4427   -7.3216    0.8174 C   0  0  0  0  0  0  0  0  0  0  0  0
    3.3243   -8.3093   -0.1188 C   0  0  0  0  0  0  0  0  0  0  0  0
    4.1638   -9.5447   -0.0704 C   0  0  0  0  0  0  0  0  0  0  0  0
    2.4024   -8.1565   -1.1977 C   0  0  0  0  0  0  0  0  0  0  0  0
    2.3935   -9.1833   -2.0906 O   0  0  0  0  0  0  0  0  0  0  0  0
    1.5151   -9.1113   -3.1858 C   0  0  0  0  0  0  0  0  0  0  0  0
    1.6193   -7.0359   -1.2932 C   0  0  0  0  0  0  0  0  0  0  0  0
   -0.0214   -4.3126   -1.1054 C   0  0  0  0  0  0  0  0  0  0  0  0
   -0.0578   -2.5985   -1.3761 S   0  0  0  0  0  0  0  0  0  0  0  0
   -1.4618   -2.6931   -2.4022 C   0  0  0  0  0  0  0  0  0  0  0  0
   -1.8928   -4.0203   -2.5143 C   0  0  0  0  0  0  0  0  0  0  0  0
   -1.0922   -4.9335   -1.7617 C   0  0  0  0  0  0  0  0  0  0  0  0
   -1.4980   -6.2812   -1.6678 C   0  0  0  0  0  0  0  0  0  0  0  0
   -2.5856   -6.7352   -2.3550 C   0  0  0  0  0  0  0  0  0  0  0  0
   -3.0368   -8.1585   -2.2740 C   0  0  0  0  0  0  0  0  0  0  0  0
   -3.3327   -5.8316   -3.1737 C   0  0  0  0  0  0  0  0  0  0  0  0
   -4.3789   -6.3962   -3.8312 O   0  0  0  0  0  0  0  0  0  0  0  0
   -5.2031   -5.5705   -4.6187 C   0  0  0  0  0  0  0  0  0  0  0  0
   -3.0008   -4.5032   -3.2373 C   0  0  0  0  0  0  0  0  0  0  0  0
   -1.9820   -1.4817   -2.9111 C   0  0  0  0  0  0  0  0  0  0  0  0
   -1.4286   -0.2401   -2.7236 C   0  0  0  0  0  0  0  0  0  0  0  0
   -2.1785    0.8194   -3.2727 C   0  0  0  0  0  0  0  0  0  0  0  0
   -1.8711    2.1899   -3.2663 C   0  0  0  0  0  0  0  0  0  0  0  0
   -0.7024    2.7407   -2.5721 C   0  0  0  0  0  0  0  0  0  0  0  0
    0.1326    3.6549   -3.2099 C   0  0  0  0  0  0  0  0  0  0  0  0
    1.1716    4.2650   -2.5377 C   0  0  0  0  0  0  0  0  0  0  0  0
    1.4106    3.9895   -1.1961 C   0  0  0  0  0  0  0  0  0  0  0  0
    2.6683    4.7618   -0.2313 S   0  0  0  0  0  0  0  0  0  0  0  0
    2.9326    6.3560   -1.0870 C   0  0  0  0  0  0  0  0  0  0  0  0
    1.6994    7.2382   -1.0669 C   0  0  0  0  0  0  0  0  0  0  0  0
    0.6021    3.0314   -0.5845 C   0  0  0  0  0  0  0  0  0  0  0  0
    0.8263    2.7087    0.7080 F   0  0  0  0  0  0  0  0  0  0  0  0
   -0.4379    2.4141   -1.2434 C   0  0  0  0  0  0  0  0  0  0  0  0
   -2.7609    3.0255   -3.9218 C   0  0  0  0  0  0  0  0  0  0  0  0
   -3.9437    2.5768   -4.5590 C   0  0  0  0  0  0  0  0  0  0  0  0
   -4.2429    1.2009   -4.5770 C   0  0  0  0  0  0  0  0  0  0  0  0
   -5.4263    0.6761   -5.2669 C   0  0  0  0  0  0  0  0  0  0  0  0
   -5.7198    1.0550   -6.5740 C   0  0  0  0  0  0  0  0  0  0  0  0
   -6.8126    0.5377   -7.2423 C   0  0  0  0  0  0  0  0  0  0  0  0
   -7.6495   -0.3880   -6.6297 C   0  0  0  0  0  0  0  0  0  0  0  0
   -9.0804   -1.1166   -7.3561 S   0  0  0  0  0  0  0  0  0  0  0  0
   -8.9021   -0.7691   -9.1400 C   0  0  0  0  0  0  0  0  0  0  0  0
   -7.7767   -1.5663   -9.7713 C   0  0  0  0  0  0  0  0  0  0  0  0
   -7.3480   -0.7530   -5.3167 C   0  0  0  0  0  0  0  0  0  0  0  0
   -6.2666   -0.2407   -4.6377 C   0  0  0  0  0  0  0  0  0  0  0  0
   -8.1424   -1.6426   -4.6858 F   0  0  0  0  0  0  0  0  0  0  0  0
   -3.3528    0.3636   -3.9245 C   0  0  0  0  0  0  0  0  0  0  0  0
   -3.4797   -1.3757   -3.8239 S   0  0  0  0  0  0  0  0  0  0  0  0
   -4.7147    3.6573   -5.0613 C   0  0  0  0  0  0  0  0  0  0  0  0
   -4.1469    4.8778   -4.8470 C   0  0  0  0  0  0  0  0  0  0  0  0
   -2.6165    4.7593   -3.9962 S   0  0  0  0  0  0  0  0  0  0  0  0
   -4.6041    6.1800   -5.2006 C   0  0  0  0  0  0  0  0  0  0  0  0
   -3.9106    7.3382   -5.0164 C   0  0  0  0  0  0  0  0  0  0  0  0
   -4.6069    8.4963   -5.4382 C   0  0  0  0  0  0  0  0  0  0  0  0
   -4.1681    9.8277   -5.3761 C   0  0  0  0  0  0  0  0  0  0  0  0
   -2.8610   10.1472   -4.7882 C   0  0  0  0  0  0  0  0  0  0  0  0
   -2.5099    9.6625   -3.5282 C   0  0  0  0  0  0  0  0  0  0  0  0
   -1.2624    9.9146   -3.0000 C   0  0  0  0  0  0  0  0  0  0  0  0
   -0.3118   10.6478   -3.7074 C   0  0  0  0  0  0  0  0  0  0  0  0
    1.2871   10.8253   -2.9679 S   0  0  0  0  0  0  0  0  0  0  0  0
    1.7728   12.5474   -3.3516 C   0  0  0  0  0  0  0  0  0  0  0  0
    0.7605   13.5499   -2.8362 C   0  0  0  0  0  0  0  0  0  0  0  0
   -0.6757   11.1267   -4.9618 C   0  0  0  0  0  0  0  0  0  0  0  0
    0.2022   11.8209   -5.7192 F   0  0  0  0  0  0  0  0  0  0  0  0
   -1.9301   10.9016   -5.4931 C   0  0  0  0  0  0  0  0  0  0  0  0
   -5.0223   10.7858   -5.9006 C   0  0  0  0  0  0  0  0  0  0  0  0
   -6.2957   10.4737   -6.4361 C   0  0  0  0  0  0  0  0  0  0  0  0
   -6.7419    9.1435   -6.4762 C   0  0  0  0  0  0  0  0  0  0  0  0
   -8.0706    8.7902   -6.9927 C   0  0  0  0  0  0  0  0  0  0  0  0
   -8.2239    7.8078   -7.9692 C   0  0  0  0  0  0  0  0  0  0  0  0
   -9.4761    7.4673   -8.4312 C   0  0  0  0  0  0  0  0  0  0  0  0
  -10.6257    8.0887   -7.9437 C   0  0  0  0  0  0  0  0  0  0  0  0
  -12.1668    7.5860   -8.6413 S   0  0  0  0  0  0  0  0  0  0  0  0
  -13.3717    7.8025   -7.2703 C   0  0  0  0  0  0  0  0  0  0  0  0
  -14.5607    6.8953   -7.5179 C   0  0  0  0  0  0  0  0  0  0  0  0
  -10.4554    9.0826   -6.9846 C   0  0  0  0  0  0  0  0  0  0  0  0
   -9.2074    9.4254   -6.5047 C   0  0  0  0  0  0  0  0  0  0  0  0
  -11.5158    9.7606   -6.4875 F   0  0  0  0  0  0  0  0  0  0  0  0
   -5.8706    8.1791   -5.9923 C   0  0  0  0  0  0  0  0  0  0  0  0
   -6.1726    6.4575   -5.9332 S   0  0  0  0  0  0  0  0  0  0  0  0
   -6.9641   11.6431   -6.9085 C   0  0  0  0  0  0  0  0  0  0  0  0
   -6.2508   12.7707   -6.7177 C   0  0  0  0  0  0  0  0  0  0  0  0
   -4.7180   12.5028   -5.9594 S   0  0  0  0  0  0  0  0  0  0  0  0
    9.1295   -9.0215   12.3438 H   0  0  0  0  0  0  0  0  0  0  0  0
    9.0605   -9.8693    9.8800 H   0  0  0  0  0  0  0  0  0  0  0  0
    7.1741  -10.9165    8.6314 H   0  0  0  0  0  0  0  0  0  0  0  0
    7.9587  -12.8320    7.3607 H   0  0  0  0  0  0  0  0  0  0  0  0
    9.1313  -15.2686    4.8500 H   0  0  0  0  0  0  0  0  0  0  0  0
    8.7888  -14.5599    6.4334 H   0  0  0  0  0  0  0  0  0  0  0  0
    6.6213  -13.6230    5.4802 H   0  0  0  0  0  0  0  0  0  0  0  0
    6.6740  -15.3865    5.3620 H   0  0  0  0  0  0  0  0  0  0  0  0
    7.0031  -14.3903    3.9391 H   0  0  0  0  0  0  0  0  0  0  0  0
    8.8448   -8.2746    5.7035 H   0  0  0  0  0  0  0  0  0  0  0  0
    3.8370   -5.3307    9.6888 H   0  0  0  0  0  0  0  0  0  0  0  0
    2.8732   -3.5157   11.0390 H   0  0  0  0  0  0  0  0  0  0  0  0
    5.7520   -0.8805   14.1795 H   0  0  0  0  0  0  0  0  0  0  0  0
    5.2116   -2.5231   14.6113 H   0  0  0  0  0  0  0  0  0  0  0  0
    3.6475    0.0533   15.1603 H   0  0  0  0  0  0  0  0  0  0  0  0
    4.5539   -0.8611   16.3720 H   0  0  0  0  0  0  0  0  0  0  0  0
    3.1289   -1.5746   15.6035 H   0  0  0  0  0  0  0  0  0  0  0  0
    7.7167   -4.3523   11.2179 H   0  0  0  0  0  0  0  0  0  0  0  0
    4.9455   -4.4445    7.7226 H   0  0  0  0  0  0  0  0  0  0  0  0
    5.2334   -2.8087    6.4170 H   0  0  0  0  0  0  0  0  0  0  0  0
    5.1316   -0.4896    6.8698 H   0  0  0  0  0  0  0  0  0  0  0  0
    3.6593    0.2900    6.2591 H   0  0  0  0  0  0  0  0  0  0  0  0
    5.1681    0.4925    5.3915 H   0  0  0  0  0  0  0  0  0  0  0  0
    1.5661   -0.1860    2.4255 H   0  0  0  0  0  0  0  0  0  0  0  0
    2.3577    1.4078    2.4572 H   0  0  0  0  0  0  0  0  0  0  0  0
    3.1132    0.0619    1.5717 H   0  0  0  0  0  0  0  0  0  0  0  0
    2.7669   -2.1493    2.1734 H   0  0  0  0  0  0  0  0  0  0  0  0
    4.1772   -7.4322    1.5980 H   0  0  0  0  0  0  0  0  0  0  0  0
    4.7531   -9.6317   -0.9818 H   0  0  0  0  0  0  0  0  0  0  0  0
    3.5268  -10.4260   -0.0127 H   0  0  0  0  0  0  0  0  0  0  0  0
    4.8297   -9.5264    0.7876 H   0  0  0  0  0  0  0  0  0  0  0  0
    1.7496   -8.2615   -3.8350 H   0  0  0  0  0  0  0  0  0  0  0  0
    0.4716   -9.0390   -2.8622 H   0  0  0  0  0  0  0  0  0  0  0  0
    1.6584  -10.0377   -3.7399 H   0  0  0  0  0  0  0  0  0  0  0  0
    0.9610   -6.8751   -2.1299 H   0  0  0  0  0  0  0  0  0  0  0  0
   -0.9567   -6.9489   -1.0156 H   0  0  0  0  0  0  0  0  0  0  0  0
   -2.4085   -8.7262   -1.5926 H   0  0  0  0  0  0  0  0  0  0  0  0
   -3.0047   -8.6175   -3.2614 H   0  0  0  0  0  0  0  0  0  0  0  0
   -4.0691   -8.2042   -1.9314 H   0  0  0  0  0  0  0  0  0  0  0  0
   -5.9685   -6.2259   -5.0308 H   0  0  0  0  0  0  0  0  0  0  0  0
   -4.6428   -5.1068   -5.4367 H   0  0  0  0  0  0  0  0  0  0  0  0
   -5.6798   -4.7886   -4.0198 H   0  0  0  0  0  0  0  0  0  0  0  0
   -3.5800   -3.8126   -3.8250 H   0  0  0  0  0  0  0  0  0  0  0  0
   -0.4930   -0.1014   -2.2123 H   0  0  0  0  0  0  0  0  0  0  0  0
   -0.0244    3.8846   -4.2525 H   0  0  0  0  0  0  0  0  0  0  0  0
    1.7982    4.9632   -3.0684 H   0  0  0  0  0  0  0  0  0  0  0  0
    3.7462    6.8110   -0.5225 H   0  0  0  0  0  0  0  0  0  0  0  0
    3.2831    6.1579   -2.0991 H   0  0  0  0  0  0  0  0  0  0  0  0
    1.3924    7.4299   -0.0414 H   0  0  0  0  0  0  0  0  0  0  0  0
    0.8719    6.7644   -1.5918 H   0  0  0  0  0  0  0  0  0  0  0  0
    1.9157    8.1890   -1.5510 H   0  0  0  0  0  0  0  0  0  0  0  0
   -1.0593    1.7152   -0.7058 H   0  0  0  0  0  0  0  0  0  0  0  0
   -5.0699    1.7489   -7.0856 H   0  0  0  0  0  0  0  0  0  0  0  0
   -7.0067    0.8661   -8.2505 H   0  0  0  0  0  0  0  0  0  0  0  0
   -9.8661   -1.0654   -9.5533 H   0  0  0  0  0  0  0  0  0  0  0  0
   -8.7830    0.3048   -9.2780 H   0  0  0  0  0  0  0  0  0  0  0  0
   -7.7300   -1.3608  -10.8391 H   0  0  0  0  0  0  0  0  0  0  0  0
   -7.9469   -2.6309   -9.6287 H   0  0  0  0  0  0  0  0  0  0  0  0
   -6.8179   -1.3104   -9.3252 H   0  0  0  0  0  0  0  0  0  0  0  0
   -6.0956   -0.5486   -3.6186 H   0  0  0  0  0  0  0  0  0  0  0  0
   -5.6677    3.5398   -5.5462 H   0  0  0  0  0  0  0  0  0  0  0  0
   -2.9178    7.3566   -4.6041 H   0  0  0  0  0  0  0  0  0  0  0  0
   -3.2303    9.1021   -2.9523 H   0  0  0  0  0  0  0  0  0  0  0  0
   -0.9956    9.5383   -2.0246 H   0  0  0  0  0  0  0  0  0  0  0  0
    2.7301   12.6556   -2.8415 H   0  0  0  0  0  0  0  0  0  0  0  0
    1.9298   12.6395   -4.4241 H   0  0  0  0  0  0  0  0  0  0  0  0
   -0.1946   13.4352   -3.3458 H   0  0  0  0  0  0  0  0  0  0  0  0
    0.6007   13.4174   -1.7681 H   0  0  0  0  0  0  0  0  0  0  0  0
    1.1243   14.5599   -3.0135 H   0  0  0  0  0  0  0  0  0  0  0  0
   -2.1525   11.2862   -6.4761 H   0  0  0  0  0  0  0  0  0  0  0  0
   -7.3530    7.3161   -8.3740 H   0  0  0  0  0  0  0  0  0  0  0  0
   -9.5913    6.7060   -9.1869 H   0  0  0  0  0  0  0  0  0  0  0  0
  -13.6742    8.8481   -7.2385 H   0  0  0  0  0  0  0  0  0  0  0  0
  -12.8594    7.5368   -6.3469 H   0  0  0  0  0  0  0  0  0  0  0  0
  -15.2837    7.0118   -6.7134 H   0  0  0  0  0  0  0  0  0  0  0  0
  -14.2461    5.8549   -7.5587 H   0  0  0  0  0  0  0  0  0  0  0  0
  -15.0433    7.1469   -8.4596 H   0  0  0  0  0  0  0  0  0  0  0  0
   -9.1363   10.1843   -5.7407 H   0  0  0  0  0  0  0  0  0  0  0  0
   -7.9287   11.6216   -7.3820 H   0  0  0  0  0  0  0  0  0  0  0  0
   -6.5208   13.7745   -6.9817 H   0  0  0  0  0  0  0  0  0  0  0  0
  1  2  2  0  0  0  0
  2  3  1  0  0  0  0
  3  4  2  0  0  0  0
  4  5  1  0  0  0  0
  5  6  2  0  0  0  0
  6  7  1  0  0  0  0
  7  8  2  0  0  0  0
  8  9  1  0  0  0  0
  9 10  1  0  0  0  0
 10 11  1  0  0  0  0
  8 12  1  0  0  0  0
 12 13  1  0  0  0  0
 12 14  2  0  0  0  0
  4 15  1  0  0  0  0
 15 16  2  0  0  0  0
 16 17  1  0  0  0  0
 17 18  1  0  0  0  0
 18 19  2  0  0  0  0
 19 20  1  0  0  0  0
 20 21  2  0  0  0  0
 21 22  1  0  0  0  0
 22 23  1  0  0  0  0
 23 24  1  0  0  0  0
 21 25  1  0  0  0  0
 25 26  2  0  0  0  0
 25 27  1  0  0  0  0
 17 28  2  0  0  0  0
 28 29  1  0  0  0  0
 16 30  1  0  0  0  0
 30 31  2  0  0  0  0
 31 32  1  0  0  0  0
 31 33  1  0  0  0  0
 33 34  1  0  0  0  0
 34 35  1  0  0  0  0
 35 36  2  0  0  0  0
 36 37  1  0  0  0  0
 37 38  1  0  0  0  0
 38 39  2  0  0  0  0
 39 40  1  0  0  0  0
 39 41  1  0  0  0  0
 41 42  1  0  0  0  0
 42 43  1  0  0  0  0
 41 44  2  0  0  0  0
 35 45  1  0  0  0  0
 45 46  1  0  0  0  0
 46 47  1  0  0  0  0
 47 48  2  0  0  0  0
 48 49  1  0  0  0  0
 49 50  1  0  0  0  0
 50 51  2  0  0  0  0
 51 52  1  0  0  0  0
 51 53  1  0  0  0  0
 53 54  1  0  0  0  0
 54 55  1  0  0  0  0
 53 56  2  0  0  0  0
 47 57  1  0  0  0  0
 57 58  1  0  0  0  0
 58 59  1  0  0  0  0
 59 60  2  0  0  0  0
 60 61  1  0  0  0  0
 61 62  1  0  0  0  0
 62 63  2  0  0  0  0
 63 64  1  0  0  0  0
 63 65  1  0  0  0  0
 65 66  1  0  0  0  0
 66 67  1  0  0  0  0
 65 68  2  0  0  0  0
 59 69  1  0  0  0  0
 69 70  2  0  0  0  0
 70 71  1  0  0  0  0
 71 72  2  0  0  0  0
 72 73  1  0  0  0  0
 73 74  2  0  0  0  0
 74 75  1  0  0  0  0
 75 76  2  0  0  0  0
 76 77  1  0  0  0  0
 77 78  1  0  0  0  0
 78 79  1  0  0  0  0
 76 80  1  0  0  0  0
 80 81  1  0  0  0  0
 80 82  2  0  0  0  0
 72 83  1  0  0  0  0
 83 84  2  0  0  0  0
 84 85  1  0  0  0  0
 85 86  1  0  0  0  0
 86 87  2  0  0  0  0
 87 88  1  0  0  0  0
 88 89  2  0  0  0  0
 89 90  1  0  0  0  0
 90 91  1  0  0  0  0
 91 92  1  0  0  0  0
 89 93  1  0  0  0  0
 93 94  2  0  0  0  0
 93 95  1  0  0  0  0
 85 96  2  0  0  0  0
 96 97  1  0  0  0  0
 84 98  1  0  0  0  0
 98 99  2  0  0  0  0
 99100  1  0  0  0  0
 99101  1  0  0  0  0
101102  2  0  0  0  0
102103  1  0  0  0  0
103104  2  0  0  0  0
104105  1  0  0  0  0
105106  2  0  0  0  0
106107  1  0  0  0  0
107108  2  0  0  0  0
108109  1  0  0  0  0
109110  1  0  0  0  0
110111  1  0  0  0  0
108112  1  0  0  0  0
112113  1  0  0  0  0
112114  2  0  0  0  0
104115  1  0  0  0  0
115116  2  0  0  0  0
116117  1  0  0  0  0
117118  1  0  0  0  0
118119  2  0  0  0  0
119120  1  0  0  0  0
120121  2  0  0  0  0
121122  1  0  0  0  0
122123  1  0  0  0  0
123124  1  0  0  0  0
121125  1  0  0  0  0
125126  2  0  0  0  0
125127  1  0  0  0  0
117128  2  0  0  0  0
128129  1  0  0  0  0
116130  1  0  0  0  0
130131  2  0  0  0  0
131132  1  0  0  0  0
 29  1  1  0  0  0  0
 37 33  2  0  0  0  0
 49 45  2  0  0  0  0
 61 57  2  0  0  0  0
 97 69  1  0  0  0  0
129101  1  0  0  0  0
 28  3  1  0  0  0  0
 44 36  1  0  0  0  0
 56 48  1  0  0  0  0
 68 60  1  0  0  0  0
 96 71  1  0  0  0  0
128103  1  0  0  0  0
 14  5  1  0  0  0  0
 32 15  1  0  0  0  0
 82 73  1  0  0  0  0
100 83  1  0  0  0  0
114105  1  0  0  0  0
132115  1  0  0  0  0
 26 18  1  0  0  0  0
 94 86  1  0  0  0  0
126118  1  0  0  0  0
  1133  1  0  0  0  0
  2134  1  0  0  0  0
  6135  1  0  0  0  0
  7136  1  0  0  0  0
 10137  1  0  0  0  0
 10138  1  0  0  0  0
 11139  1  0  0  0  0
 11140  1  0  0  0  0
 11141  1  0  0  0  0
 14142  1  0  0  0  0
 19143  1  0  0  0  0
 20144  1  0  0  0  0
 23145  1  0  0  0  0
 23146  1  0  0  0  0
 24147  1  0  0  0  0
 24148  1  0  0  0  0
 24149  1  0  0  0  0
 26150  1  0  0  0  0
 30151  1  0  0  0  0
 38152  1  0  0  0  0
 40153  1  0  0  0  0
 40154  1  0  0  0  0
 40155  1  0  0  0  0
 43156  1  0  0  0  0
 43157  1  0  0  0  0
 43158  1  0  0  0  0
 44159  1  0  0  0  0
 50160  1  0  0  0  0
 52161  1  0  0  0  0
 52162  1  0  0  0  0
 52163  1  0  0  0  0
 55164  1  0  0  0  0
 55165  1  0  0  0  0
 55166  1  0  0  0  0
 56167  1  0  0  0  0
 62168  1  0  0  0  0
 64169  1  0  0  0  0
 64170  1  0  0  0  0
 64171  1  0  0  0  0
 67172  1  0  0  0  0
 67173  1  0  0  0  0
 67174  1  0  0  0  0
 68175  1  0  0  0  0
 70176  1  0  0  0  0
 74177  1  0  0  0  0
 75178  1  0  0  0  0
 78179  1  0  0  0  0
 78180  1  0  0  0  0
 79181  1  0  0  0  0
 79182  1  0  0  0  0
 79183  1  0  0  0  0
 82184  1  0  0  0  0
 87185  1  0  0  0  0
 88186  1  0  0  0  0
 91187  1  0  0  0  0
 91188  1  0  0  0  0
 92189  1  0  0  0  0
 92190  1  0  0  0  0
 92191  1  0  0  0  0
 94192  1  0  0  0  0
 98193  1  0  0  0  0
102194  1  0  0  0  0
106195  1  0  0  0  0
107196  1  0  0  0  0
110197  1  0  0  0  0
110198  1  0  0  0  0
111199  1  0  0  0  0
111200  1  0  0  0  0
111201  1  0  0  0  0
114202  1  0  0  0  0
119203  1  0  0  0  0
120204  1  0  0  0  0
123205  1  0  0  0  0
123206  1  0  0  0  0
124207  1  0  0  0  0
124208  1  0  0  0  0
124209  1  0  0  0  0
126210  1  0  0  0  0
130211  1  0  0  0  0
131212  1  0  0  0  0
M  END
