
  xtb     03042206333D
 energy: -470.531386983460 gnorm: 0.000282025886 xtb: 6.4.1 (unknown)
272298  0     0  0            999 V2000
   -0.0911    1.5622    9.3418 C   0  0  0  0  0  0  0  0  0  0  0  0
   -1.0235    1.2193    7.9582 S   0  0  0  0  0  0  0  0  0  0  0  0
   -1.1646   -0.4671    8.3738 C   0  0  0  0  0  0  0  0  0  0  0  0
   -0.4896   -0.7303    9.5667 C   0  0  0  0  0  0  0  0  0  0  0  0
    0.1223    0.4452   10.1159 C   0  0  0  0  0  0  0  0  0  0  0  0
    0.8463    0.3545   11.3302 C   0  0  0  0  0  0  0  0  0  0  0  0
    0.9686   -0.8358   11.9753 C   0  0  0  0  0  0  0  0  0  0  0  0
    1.7215   -0.9767   13.2588 C   0  0  0  0  0  0  0  0  0  0  0  0
    0.3589   -2.0106   11.4179 C   0  0  0  0  0  0  0  0  0  0  0  0
    0.5539   -3.1399   12.1462 O   0  0  0  0  0  0  0  0  0  0  0  0
    0.0109   -4.3500   11.6746 C   0  0  0  0  0  0  0  0  0  0  0  0
   -0.3518   -1.9566   10.2491 C   0  0  0  0  0  0  0  0  0  0  0  0
   -1.8883   -1.3201    7.4981 C   0  0  0  0  0  0  0  0  0  0  0  0
   -2.5333   -0.9408    6.3529 C   0  0  0  0  0  0  0  0  0  0  0  0
   -3.1415   -2.0054    5.6490 C   0  0  0  0  0  0  0  0  0  0  0  0
   -3.8630   -1.9473    4.4471 C   0  0  0  0  0  0  0  0  0  0  0  0
   -4.0783   -0.6949    3.7105 C   0  0  0  0  0  0  0  0  0  0  0  0
   -3.7198   -0.6171    2.3659 C   0  0  0  0  0  0  0  0  0  0  0  0
   -3.9385    0.5298    1.6309 C   0  0  0  0  0  0  0  0  0  0  0  0
   -4.5405    1.6413    2.2094 C   0  0  0  0  0  0  0  0  0  0  0  0
   -4.9050    3.1338    1.3507 S   0  0  0  0  0  0  0  0  0  0  0  0
   -5.0313    2.5990   -0.3945 C   0  0  0  0  0  0  0  0  0  0  0  0
   -6.1831    1.6401   -0.6237 C   0  0  0  0  0  0  0  0  0  0  0  0
   -4.8572    1.5653    3.5665 C   0  0  0  0  0  0  0  0  0  0  0  0
   -5.4185    2.6294    4.1729 F   0  0  0  0  0  0  0  0  0  0  0  0
   -4.6352    0.4291    4.3148 C   0  0  0  0  0  0  0  0  0  0  0  0
   -4.3151   -3.1557    3.9406 C   0  0  0  0  0  0  0  0  0  0  0  0
   -4.0677   -4.4116    4.5455 C   0  0  0  0  0  0  0  0  0  0  0  0
   -3.3782   -4.4647    5.7701 C   0  0  0  0  0  0  0  0  0  0  0  0
   -3.1815   -5.7282    6.4884 C   0  0  0  0  0  0  0  0  0  0  0  0
   -4.2475   -6.6023    6.6848 C   0  0  0  0  0  0  0  0  0  0  0  0
   -4.0938   -7.7725    7.4026 C   0  0  0  0  0  0  0  0  0  0  0  0
   -2.8658   -8.1101    7.9600 C   0  0  0  0  0  0  0  0  0  0  0  0
   -2.5226   -9.5645    8.8924 S   0  0  0  0  0  0  0  0  0  0  0  0
   -4.1672  -10.2751    9.2441 C   0  0  0  0  0  0  0  0  0  0  0  0
   -4.9378   -9.4673   10.2715 C   0  0  0  0  0  0  0  0  0  0  0  0
   -1.8029   -7.2308    7.7446 C   0  0  0  0  0  0  0  0  0  0  0  0
   -1.9408   -6.0656    7.0263 C   0  0  0  0  0  0  0  0  0  0  0  0
   -0.5926   -7.5286    8.2615 F   0  0  0  0  0  0  0  0  0  0  0  0
   -2.9263   -3.2562    6.2799 C   0  0  0  0  0  0  0  0  0  0  0  0
   -2.0253   -3.0515    7.7603 S   0  0  0  0  0  0  0  0  0  0  0  0
   -4.5168   -5.4900    3.7316 C   0  0  0  0  0  0  0  0  0  0  0  0
   -5.1518   -5.0865    2.6002 C   0  0  0  0  0  0  0  0  0  0  0  0
   -5.2391   -3.3319    2.4767 S   0  0  0  0  0  0  0  0  0  0  0  0
   -5.5635   -5.7832    1.4159 C   0  0  0  0  0  0  0  0  0  0  0  0
   -6.5034   -5.3349    0.5387 C   0  0  0  0  0  0  0  0  0  0  0  0
   -6.3971   -5.9059   -0.7534 C   0  0  0  0  0  0  0  0  0  0  0  0
   -7.0177   -5.4542   -1.9276 C   0  0  0  0  0  0  0  0  0  0  0  0
   -7.9676   -4.3314   -1.9618 C   0  0  0  0  0  0  0  0  0  0  0  0
   -7.6361   -3.0966   -1.4047 C   0  0  0  0  0  0  0  0  0  0  0  0
   -8.4826   -2.0170   -1.5386 C   0  0  0  0  0  0  0  0  0  0  0  0
   -9.6850   -2.1189   -2.2390 C   0  0  0  0  0  0  0  0  0  0  0  0
  -10.6441   -0.6471   -2.4015 S   0  0  0  0  0  0  0  0  0  0  0  0
  -12.3809   -1.2463   -2.4559 C   0  0  0  0  0  0  0  0  0  0  0  0
  -13.2966   -0.1185   -2.0228 C   0  0  0  0  0  0  0  0  0  0  0  0
   -9.9933   -3.3527   -2.8039 C   0  0  0  0  0  0  0  0  0  0  0  0
  -11.1220   -3.5213   -3.5288 F   0  0  0  0  0  0  0  0  0  0  0  0
   -9.1599   -4.4449   -2.6668 C   0  0  0  0  0  0  0  0  0  0  0  0
   -6.5105   -5.9419   -3.1190 C   0  0  0  0  0  0  0  0  0  0  0  0
   -5.4182   -6.8404   -3.1965 C   0  0  0  0  0  0  0  0  0  0  0  0
   -4.8428   -7.3437   -2.0178 C   0  0  0  0  0  0  0  0  0  0  0  0
   -3.6075   -8.1432   -2.0642 C   0  0  0  0  0  0  0  0  0  0  0  0
   -2.4721   -7.6262   -2.6822 C   0  0  0  0  0  0  0  0  0  0  0  0
   -1.3037   -8.3571   -2.7651 C   0  0  0  0  0  0  0  0  0  0  0  0
   -1.2301   -9.6383   -2.2285 C   0  0  0  0  0  0  0  0  0  0  0  0
    0.1823  -10.6808   -2.3050 S   0  0  0  0  0  0  0  0  0  0  0  0
    1.3260   -9.7618   -3.4034 C   0  0  0  0  0  0  0  0  0  0  0  0
    2.5362  -10.6294   -3.6890 C   0  0  0  0  0  0  0  0  0  0  0  0
   -2.3642  -10.1262   -1.5739 C   0  0  0  0  0  0  0  0  0  0  0  0
   -3.5342   -9.4048   -1.4820 C   0  0  0  0  0  0  0  0  0  0  0  0
   -2.3196  -11.3540   -1.0196 F   0  0  0  0  0  0  0  0  0  0  0  0
   -5.3544   -6.8646   -0.8210 C   0  0  0  0  0  0  0  0  0  0  0  0
   -4.5908   -7.0809    0.7381 S   0  0  0  0  0  0  0  0  0  0  0  0
   -4.8372   -6.8505   -4.4936 C   0  0  0  0  0  0  0  0  0  0  0  0
   -5.3700   -5.9124   -5.3315 C   0  0  0  0  0  0  0  0  0  0  0  0
   -6.8474   -5.2108   -4.6700 S   0  0  0  0  0  0  0  0  0  0  0  0
   -4.6097   -5.1187   -6.2463 C   0  0  0  0  0  0  0  0  0  0  0  0
   -4.8402   -3.7836   -6.4190 C   0  0  0  0  0  0  0  0  0  0  0  0
   -3.6576   -3.0281   -6.6071 C   0  0  0  0  0  0  0  0  0  0  0  0
   -3.5133   -1.6603   -6.3436 C   0  0  0  0  0  0  0  0  0  0  0  0
   -4.6420   -0.8458   -5.8628 C   0  0  0  0  0  0  0  0  0  0  0  0
   -5.3266   -1.2510   -4.7171 C   0  0  0  0  0  0  0  0  0  0  0  0
   -6.3364   -0.4752   -4.1904 C   0  0  0  0  0  0  0  0  0  0  0  0
   -6.6964    0.7312   -4.7827 C   0  0  0  0  0  0  0  0  0  0  0  0
   -7.9501    1.7065   -3.9926 S   0  0  0  0  0  0  0  0  0  0  0  0
   -9.1073    2.0295   -5.3701 C   0  0  0  0  0  0  0  0  0  0  0  0
   -9.6892    0.7410   -5.9149 C   0  0  0  0  0  0  0  0  0  0  0  0
   -5.9976    1.1295   -5.9178 C   0  0  0  0  0  0  0  0  0  0  0  0
   -6.2885    2.2992   -6.5228 F   0  0  0  0  0  0  0  0  0  0  0  0
   -4.9864    0.3594   -6.4606 C   0  0  0  0  0  0  0  0  0  0  0  0
   -2.2182   -1.1738   -6.2770 C   0  0  0  0  0  0  0  0  0  0  0  0
   -1.0665   -1.9797   -6.4580 C   0  0  0  0  0  0  0  0  0  0  0  0
   -1.2156   -3.3589   -6.6899 C   0  0  0  0  0  0  0  0  0  0  0  0
   -0.0987   -4.3123   -6.6290 C   0  0  0  0  0  0  0  0  0  0  0  0
    0.7647   -4.3261   -5.5345 C   0  0  0  0  0  0  0  0  0  0  0  0
    1.7259   -5.3065   -5.4121 C   0  0  0  0  0  0  0  0  0  0  0  0
    1.8621   -6.3126   -6.3663 C   0  0  0  0  0  0  0  0  0  0  0  0
    3.0624   -7.5737   -6.0454 S   0  0  0  0  0  0  0  0  0  0  0  0
    3.8184   -7.9040   -7.6794 C   0  0  0  0  0  0  0  0  0  0  0  0
    4.4237   -6.6544   -8.2854 C   0  0  0  0  0  0  0  0  0  0  0  0
    0.9915   -6.2887   -7.4515 C   0  0  0  0  0  0  0  0  0  0  0  0
    0.0317   -5.3064   -7.5925 C   0  0  0  0  0  0  0  0  0  0  0  0
    1.0474   -7.2448   -8.4029 F   0  0  0  0  0  0  0  0  0  0  0  0
   -2.5122   -3.8481   -6.7501 C   0  0  0  0  0  0  0  0  0  0  0  0
   -2.9436   -5.5432   -6.6317 S   0  0  0  0  0  0  0  0  0  0  0  0
    0.1243   -1.2619   -6.1521 C   0  0  0  0  0  0  0  0  0  0  0  0
   -0.1089   -0.0099   -5.6744 C   0  0  0  0  0  0  0  0  0  0  0  0
   -1.8088    0.4113   -5.6889 S   0  0  0  0  0  0  0  0  0  0  0  0
    0.8023    0.8879   -5.0136 C   0  0  0  0  0  0  0  0  0  0  0  0
    2.0413    1.3200   -5.3572 C   0  0  0  0  0  0  0  0  0  0  0  0
    2.6396    2.1548   -4.3708 C   0  0  0  0  0  0  0  0  0  0  0  0
    3.8934    2.7800   -4.4098 C   0  0  0  0  0  0  0  0  0  0  0  0
    4.8278    2.6268   -5.5324 C   0  0  0  0  0  0  0  0  0  0  0  0
    5.2292    1.3690   -5.9778 C   0  0  0  0  0  0  0  0  0  0  0  0
    6.1837    1.2482   -6.9653 C   0  0  0  0  0  0  0  0  0  0  0  0
    6.7594    2.3693   -7.5608 C   0  0  0  0  0  0  0  0  0  0  0  0
    7.9777    2.0910   -8.8113 S   0  0  0  0  0  0  0  0  0  0  0  0
    9.2143    3.4145   -8.5361 C   0  0  0  0  0  0  0  0  0  0  0  0
    9.7582    3.4094   -7.1218 C   0  0  0  0  0  0  0  0  0  0  0  0
    6.3043    3.6175   -7.1469 C   0  0  0  0  0  0  0  0  0  0  0  0
    6.7649    4.7496   -7.7223 F   0  0  0  0  0  0  0  0  0  0  0  0
    5.3729    3.7537   -6.1385 C   0  0  0  0  0  0  0  0  0  0  0  0
    4.2393    3.5501   -3.3090 C   0  0  0  0  0  0  0  0  0  0  0  0
    3.4271    3.6785   -2.1552 C   0  0  0  0  0  0  0  0  0  0  0  0
    2.1757    3.0416   -2.1076 C   0  0  0  0  0  0  0  0  0  0  0  0
    1.3415    3.0584   -0.8998 C   0  0  0  0  0  0  0  0  0  0  0  0
   -0.0260    3.3316   -0.9459 C   0  0  0  0  0  0  0  0  0  0  0  0
   -0.7912    3.2759    0.1973 C   0  0  0  0  0  0  0  0  0  0  0  0
   -0.2421    2.9519    1.4417 C   0  0  0  0  0  0  0  0  0  0  0  0
   -1.3804    2.9543    2.7877 S   0  0  0  0  0  0  0  0  0  0  0  0
   -0.6135    2.0247    4.1616 C   0  0  0  0  0  0  0  0  0  0  0  0
   -0.4405    0.5534    3.8429 C   0  0  0  0  0  0  0  0  0  0  0  0
    1.1287    2.7134    1.4751 C   0  0  0  0  0  0  0  0  0  0  0  0
    1.9056    2.7513    0.3343 C   0  0  0  0  0  0  0  0  0  0  0  0
    1.7712    2.4253    2.6317 F   0  0  0  0  0  0  0  0  0  0  0  0
    1.8013    2.3332   -3.2419 C   0  0  0  0  0  0  0  0  0  0  0  0
    0.2937    1.4882   -3.4432 S   0  0  0  0  0  0  0  0  0  0  0  0
    4.0359    4.4998   -1.1706 C   0  0  0  0  0  0  0  0  0  0  0  0
    5.2675    4.9595   -1.5320 C   0  0  0  0  0  0  0  0  0  0  0  0
    5.7420    4.4104   -3.1254 S   0  0  0  0  0  0  0  0  0  0  0  0
    6.1569    5.7977   -0.7913 C   0  0  0  0  0  0  0  0  0  0  0  0
    6.0821    6.1637    0.5197 C   0  0  0  0  0  0  0  0  0  0  0  0
    7.1456    7.0092    0.9326 C   0  0  0  0  0  0  0  0  0  0  0  0
    7.3746    7.5667    2.2011 C   0  0  0  0  0  0  0  0  0  0  0  0
    6.4463    7.3380    3.3145 C   0  0  0  0  0  0  0  0  0  0  0  0
    6.9073    6.8872    4.5477 C   0  0  0  0  0  0  0  0  0  0  0  0
    6.0379    6.6551    5.5955 C   0  0  0  0  0  0  0  0  0  0  0  0
    4.6733    6.8790    5.4525 C   0  0  0  0  0  0  0  0  0  0  0  0
    3.4571    6.6018    6.6961 S   0  0  0  0  0  0  0  0  0  0  0  0
    4.4198    6.5230    8.2460 C   0  0  0  0  0  0  0  0  0  0  0  0
    5.0190    7.8651    8.6202 C   0  0  0  0  0  0  0  0  0  0  0  0
    4.2246    7.3320    4.2103 C   0  0  0  0  0  0  0  0  0  0  0  0
    2.9079    7.5583    4.0312 F   0  0  0  0  0  0  0  0  0  0  0  0
    5.0793    7.5598    3.1557 C   0  0  0  0  0  0  0  0  0  0  0  0
    8.5192    8.3392    2.3438 C   0  0  0  0  0  0  0  0  0  0  0  0
    9.4207    8.5998    1.2832 C   0  0  0  0  0  0  0  0  0  0  0  0
    9.1916    8.0455    0.0176 C   0  0  0  0  0  0  0  0  0  0  0  0
   10.0734    8.2907   -1.1314 C   0  0  0  0  0  0  0  0  0  0  0  0
   10.3858    9.5843   -1.5441 C   0  0  0  0  0  0  0  0  0  0  0  0
   11.1398    9.7937   -2.6793 C   0  0  0  0  0  0  0  0  0  0  0  0
   11.6277    8.7284   -3.4342 C   0  0  0  0  0  0  0  0  0  0  0  0
   12.5845    9.1183   -4.8692 S   0  0  0  0  0  0  0  0  0  0  0  0
   12.0756    7.8610   -6.1010 C   0  0  0  0  0  0  0  0  0  0  0  0
   10.5775    7.8527   -6.3295 C   0  0  0  0  0  0  0  0  0  0  0  0
   11.3537    7.4429   -2.9778 C   0  0  0  0  0  0  0  0  0  0  0  0
   10.5751    7.2185   -1.8614 C   0  0  0  0  0  0  0  0  0  0  0  0
   11.8445    6.3593   -3.6193 F   0  0  0  0  0  0  0  0  0  0  0  0
    8.0626    7.2519   -0.1191 C   0  0  0  0  0  0  0  0  0  0  0  0
    7.5618    6.4693   -1.5919 S   0  0  0  0  0  0  0  0  0  0  0  0
   10.5062    9.4253    1.7031 C   0  0  0  0  0  0  0  0  0  0  0  0
   10.4174    9.7886    2.9979 C   0  0  0  0  0  0  0  0  0  0  0  0
    9.0237    9.1523    3.8041 S   0  0  0  0  0  0  0  0  0  0  0  0
    0.2511    2.5626    9.5164 H   0  0  0  0  0  0  0  0  0  0  0  0
    1.2985    1.2483   11.7336 H   0  0  0  0  0  0  0  0  0  0  0  0
    2.5279   -1.6986   13.1407 H   0  0  0  0  0  0  0  0  0  0  0  0
    2.1362   -0.0222   13.5712 H   0  0  0  0  0  0  0  0  0  0  0  0
    1.0617   -1.3543   14.0382 H   0  0  0  0  0  0  0  0  0  0  0  0
    0.4168   -4.6193   10.6949 H   0  0  0  0  0  0  0  0  0  0  0  0
   -1.0808   -4.3026   11.6116 H   0  0  0  0  0  0  0  0  0  0  0  0
    0.2983   -5.1057   12.4037 H   0  0  0  0  0  0  0  0  0  0  0  0
   -0.8096   -2.8396    9.8393 H   0  0  0  0  0  0  0  0  0  0  0  0
   -2.5619    0.0801    6.0186 H   0  0  0  0  0  0  0  0  0  0  0  0
   -3.2425   -1.4618    1.8919 H   0  0  0  0  0  0  0  0  0  0  0  0
   -3.6272    0.5561    0.5992 H   0  0  0  0  0  0  0  0  0  0  0  0
   -4.0757    2.1813   -0.7105 H   0  0  0  0  0  0  0  0  0  0  0  0
   -5.1958    3.5330   -0.9312 H   0  0  0  0  0  0  0  0  0  0  0  0
   -6.2731    1.4201   -1.6857 H   0  0  0  0  0  0  0  0  0  0  0  0
   -7.1155    2.0869   -0.2878 H   0  0  0  0  0  0  0  0  0  0  0  0
   -6.0292    0.7087   -0.0819 H   0  0  0  0  0  0  0  0  0  0  0  0
   -4.9299    0.4158    5.3526 H   0  0  0  0  0  0  0  0  0  0  0  0
   -5.2205   -6.3511    6.2901 H   0  0  0  0  0  0  0  0  0  0  0  0
   -4.9464   -8.4206    7.5242 H   0  0  0  0  0  0  0  0  0  0  0  0
   -3.9374  -11.2692    9.6274 H   0  0  0  0  0  0  0  0  0  0  0  0
   -4.7083  -10.3841    8.3051 H   0  0  0  0  0  0  0  0  0  0  0  0
   -5.1195   -8.4544    9.9185 H   0  0  0  0  0  0  0  0  0  0  0  0
   -5.8957   -9.9428   10.4737 H   0  0  0  0  0  0  0  0  0  0  0  0
   -4.3751   -9.4095   11.2002 H   0  0  0  0  0  0  0  0  0  0  0  0
   -1.0765   -5.4383    6.8781 H   0  0  0  0  0  0  0  0  0  0  0  0
   -4.3423   -6.5248    3.9675 H   0  0  0  0  0  0  0  0  0  0  0  0
   -7.2110   -4.5660    0.7917 H   0  0  0  0  0  0  0  0  0  0  0  0
   -6.6975   -2.9767   -0.8849 H   0  0  0  0  0  0  0  0  0  0  0  0
   -8.2249   -1.0615   -1.1070 H   0  0  0  0  0  0  0  0  0  0  0  0
  -12.6062   -1.5686   -3.4715 H   0  0  0  0  0  0  0  0  0  0  0  0
  -12.4504   -2.0940   -1.7759 H   0  0  0  0  0  0  0  0  0  0  0  0
  -14.3306   -0.4560   -2.0460 H   0  0  0  0  0  0  0  0  0  0  0  0
  -13.1933    0.7345   -2.6897 H   0  0  0  0  0  0  0  0  0  0  0  0
  -13.0552    0.2036   -1.0123 H   0  0  0  0  0  0  0  0  0  0  0  0
   -9.4482   -5.3780   -3.1257 H   0  0  0  0  0  0  0  0  0  0  0  0
   -2.4936   -6.6259   -3.0887 H   0  0  0  0  0  0  0  0  0  0  0  0
   -0.4491   -7.9174   -3.2528 H   0  0  0  0  0  0  0  0  0  0  0  0
    1.6216   -8.8426   -2.8979 H   0  0  0  0  0  0  0  0  0  0  0  0
    0.7923   -9.5281   -4.3242 H   0  0  0  0  0  0  0  0  0  0  0  0
    3.0528  -10.8816   -2.7660 H   0  0  0  0  0  0  0  0  0  0  0  0
    3.2202  -10.0887   -4.3393 H   0  0  0  0  0  0  0  0  0  0  0  0
    2.2367  -11.5519   -4.1804 H   0  0  0  0  0  0  0  0  0  0  0  0
   -4.3837   -9.8362   -0.9761 H   0  0  0  0  0  0  0  0  0  0  0  0
   -3.9565   -7.4142   -4.7434 H   0  0  0  0  0  0  0  0  0  0  0  0
   -5.8028   -3.3338   -6.2553 H   0  0  0  0  0  0  0  0  0  0  0  0
   -5.0513   -2.1722   -4.2261 H   0  0  0  0  0  0  0  0  0  0  0  0
   -6.8660   -0.7953   -3.3064 H   0  0  0  0  0  0  0  0  0  0  0  0
   -9.8789    2.6503   -4.9160 H   0  0  0  0  0  0  0  0  0  0  0  0
   -8.5902    2.6050   -6.1353 H   0  0  0  0  0  0  0  0  0  0  0  0
   -8.9117    0.1235   -6.3625 H   0  0  0  0  0  0  0  0  0  0  0  0
  -10.1612    0.1749   -5.1149 H   0  0  0  0  0  0  0  0  0  0  0  0
  -10.4340    0.9649   -6.6760 H   0  0  0  0  0  0  0  0  0  0  0  0
   -4.4724    0.7128   -7.3410 H   0  0  0  0  0  0  0  0  0  0  0  0
    0.6586   -3.5814   -4.7605 H   0  0  0  0  0  0  0  0  0  0  0  0
    2.3853   -5.3208   -4.5579 H   0  0  0  0  0  0  0  0  0  0  0  0
    3.0716   -8.3541   -8.3297 H   0  0  0  0  0  0  0  0  0  0  0  0
    4.5861   -8.6443   -7.4537 H   0  0  0  0  0  0  0  0  0  0  0  0
    3.6541   -5.9157   -8.5023 H   0  0  0  0  0  0  0  0  0  0  0  0
    5.1475   -6.2107   -7.6047 H   0  0  0  0  0  0  0  0  0  0  0  0
    4.9277   -6.9074   -9.2158 H   0  0  0  0  0  0  0  0  0  0  0  0
   -0.6186   -5.3369   -8.4529 H   0  0  0  0  0  0  0  0  0  0  0  0
    1.1097   -1.6855   -6.2259 H   0  0  0  0  0  0  0  0  0  0  0  0
    2.5106    1.0815   -6.2945 H   0  0  0  0  0  0  0  0  0  0  0  0
    4.8208    0.4836   -5.5148 H   0  0  0  0  0  0  0  0  0  0  0  0
    6.5145    0.2736   -7.2893 H   0  0  0  0  0  0  0  0  0  0  0  0
    8.7712    4.3723   -8.8006 H   0  0  0  0  0  0  0  0  0  0  0  0
    9.9946    3.1730   -9.2582 H   0  0  0  0  0  0  0  0  0  0  0  0
    8.9820    3.6627   -6.4022 H   0  0  0  0  0  0  0  0  0  0  0  0
   10.1572    2.4292   -6.8691 H   0  0  0  0  0  0  0  0  0  0  0  0
   10.5566    4.1436   -7.0339 H   0  0  0  0  0  0  0  0  0  0  0  0
    5.0623    4.7464   -5.8525 H   0  0  0  0  0  0  0  0  0  0  0  0
   -0.4882    3.6046   -1.8820 H   0  0  0  0  0  0  0  0  0  0  0  0
   -1.8473    3.4940    0.1575 H   0  0  0  0  0  0  0  0  0  0  0  0
   -1.3279    2.1673    4.9735 H   0  0  0  0  0  0  0  0  0  0  0  0
    0.3244    2.5010    4.4359 H   0  0  0  0  0  0  0  0  0  0  0  0
   -0.0890    0.0284    4.7290 H   0  0  0  0  0  0  0  0  0  0  0  0
    0.2878    0.4096    3.0485 H   0  0  0  0  0  0  0  0  0  0  0  0
   -1.3866    0.1171    3.5288 H   0  0  0  0  0  0  0  0  0  0  0  0
    2.9556    2.5168    0.4223 H   0  0  0  0  0  0  0  0  0  0  0  0
    3.5594    4.7621   -0.2441 H   0  0  0  0  0  0  0  0  0  0  0  0
    5.3077    5.8220    1.1814 H   0  0  0  0  0  0  0  0  0  0  0  0
    7.9594    6.6900    4.6845 H   0  0  0  0  0  0  0  0  0  0  0  0
    6.4351    6.2847    6.5264 H   0  0  0  0  0  0  0  0  0  0  0  0
    5.1722    5.7407    8.1534 H   0  0  0  0  0  0  0  0  0  0  0  0
    3.6829    6.2078    8.9848 H   0  0  0  0  0  0  0  0  0  0  0  0
    5.5487    7.7828    9.5675 H   0  0  0  0  0  0  0  0  0  0  0  0
    4.2335    8.6099    8.7241 H   0  0  0  0  0  0  0  0  0  0  0  0
    5.7178    8.2078    7.8599 H   0  0  0  0  0  0  0  0  0  0  0  0
    4.6797    7.9350    2.2264 H   0  0  0  0  0  0  0  0  0  0  0  0
    9.9995   10.4283   -0.9930 H   0  0  0  0  0  0  0  0  0  0  0  0
   11.3584   10.7964   -3.0125 H   0  0  0  0  0  0  0  0  0  0  0  0
   12.4469    6.8879   -5.7866 H   0  0  0  0  0  0  0  0  0  0  0  0
   12.6086    8.1706   -7.0002 H   0  0  0  0  0  0  0  0  0  0  0  0
   10.2269    8.8465   -6.6000 H   0  0  0  0  0  0  0  0  0  0  0  0
   10.3337    7.1654   -7.1372 H   0  0  0  0  0  0  0  0  0  0  0  0
   10.0467    7.5304   -5.4357 H   0  0  0  0  0  0  0  0  0  0  0  0
   10.3887    6.2003   -1.5572 H   0  0  0  0  0  0  0  0  0  0  0  0
   11.3120    9.7140    1.0530 H   0  0  0  0  0  0  0  0  0  0  0  0
   11.0959   10.4004    3.5596 H   0  0  0  0  0  0  0  0  0  0  0  0
  1  2  1  0  0  0  0
  2  3  1  0  0  0  0
  3  4  2  0  0  0  0
  4  5  1  0  0  0  0
  5  6  1  0  0  0  0
  6  7  2  0  0  0  0
  7  8  1  0  0  0  0
  7  9  1  0  0  0  0
  9 10  1  0  0  0  0
 10 11  1  0  0  0  0
  9 12  2  0  0  0  0
  3 13  1  0  0  0  0
 13 14  2  0  0  0  0
 14 15  1  0  0  0  0
 15 16  2  0  0  0  0
 16 17  1  0  0  0  0
 17 18  2  0  0  0  0
 18 19  1  0  0  0  0
 19 20  2  0  0  0  0
 20 21  1  0  0  0  0
 21 22  1  0  0  0  0
 22 23  1  0  0  0  0
 20 24  1  0  0  0  0
 24 25  1  0  0  0  0
 24 26  2  0  0  0  0
 16 27  1  0  0  0  0
 27 28  2  0  0  0  0
 28 29  1  0  0  0  0
 29 30  1  0  0  0  0
 30 31  2  0  0  0  0
 31 32  1  0  0  0  0
 32 33  2  0  0  0  0
 33 34  1  0  0  0  0
 34 35  1  0  0  0  0
 35 36  1  0  0  0  0
 33 37  1  0  0  0  0
 37 38  2  0  0  0  0
 37 39  1  0  0  0  0
 29 40  2  0  0  0  0
 40 41  1  0  0  0  0
 28 42  1  0  0  0  0
 42 43  2  0  0  0  0
 43 44  1  0  0  0  0
 43 45  1  0  0  0  0
 45 46  2  0  0  0  0
 46 47  1  0  0  0  0
 47 48  2  0  0  0  0
 48 49  1  0  0  0  0
 49 50  2  0  0  0  0
 50 51  1  0  0  0  0
 51 52  2  0  0  0  0
 52 53  1  0  0  0  0
 53 54  1  0  0  0  0
 54 55  1  0  0  0  0
 52 56  1  0  0  0  0
 56 57  1  0  0  0  0
 56 58  2  0  0  0  0
 48 59  1  0  0  0  0
 59 60  2  0  0  0  0
 60 61  1  0  0  0  0
 61 62  1  0  0  0  0
 62 63  2  0  0  0  0
 63 64  1  0  0  0  0
 64 65  2  0  0  0  0
 65 66  1  0  0  0  0
 66 67  1  0  0  0  0
 67 68  1  0  0  0  0
 65 69  1  0  0  0  0
 69 70  2  0  0  0  0
 69 71  1  0  0  0  0
 61 72  2  0  0  0  0
 72 73  1  0  0  0  0
 60 74  1  0  0  0  0
 74 75  2  0  0  0  0
 75 76  1  0  0  0  0
 75 77  1  0  0  0  0
 77 78  2  0  0  0  0
 78 79  1  0  0  0  0
 79 80  2  0  0  0  0
 80 81  1  0  0  0  0
 81 82  2  0  0  0  0
 82 83  1  0  0  0  0
 83 84  2  0  0  0  0
 84 85  1  0  0  0  0
 85 86  1  0  0  0  0
 86 87  1  0  0  0  0
 84 88  1  0  0  0  0
 88 89  1  0  0  0  0
 88 90  2  0  0  0  0
 80 91  1  0  0  0  0
 91 92  2  0  0  0  0
 92 93  1  0  0  0  0
 93 94  1  0  0  0  0
 94 95  2  0  0  0  0
 95 96  1  0  0  0  0
 96 97  2  0  0  0  0
 97 98  1  0  0  0  0
 98 99  1  0  0  0  0
 99100  1  0  0  0  0
 97101  1  0  0  0  0
101102  2  0  0  0  0
101103  1  0  0  0  0
 93104  2  0  0  0  0
104105  1  0  0  0  0
 92106  1  0  0  0  0
106107  2  0  0  0  0
107108  1  0  0  0  0
107109  1  0  0  0  0
109110  2  0  0  0  0
110111  1  0  0  0  0
111112  2  0  0  0  0
112113  1  0  0  0  0
113114  2  0  0  0  0
114115  1  0  0  0  0
115116  2  0  0  0  0
116117  1  0  0  0  0
117118  1  0  0  0  0
118119  1  0  0  0  0
116120  1  0  0  0  0
120121  1  0  0  0  0
120122  2  0  0  0  0
112123  1  0  0  0  0
123124  2  0  0  0  0
124125  1  0  0  0  0
125126  1  0  0  0  0
126127  2  0  0  0  0
127128  1  0  0  0  0
128129  2  0  0  0  0
129130  1  0  0  0  0
130131  1  0  0  0  0
131132  1  0  0  0  0
129133  1  0  0  0  0
133134  2  0  0  0  0
133135  1  0  0  0  0
125136  2  0  0  0  0
136137  1  0  0  0  0
124138  1  0  0  0  0
138139  2  0  0  0  0
139140  1  0  0  0  0
139141  1  0  0  0  0
141142  2  0  0  0  0
142143  1  0  0  0  0
143144  2  0  0  0  0
144145  1  0  0  0  0
145146  2  0  0  0  0
146147  1  0  0  0  0
147148  2  0  0  0  0
148149  1  0  0  0  0
149150  1  0  0  0  0
150151  1  0  0  0  0
148152  1  0  0  0  0
152153  1  0  0  0  0
152154  2  0  0  0  0
144155  1  0  0  0  0
155156  2  0  0  0  0
156157  1  0  0  0  0
157158  1  0  0  0  0
158159  2  0  0  0  0
159160  1  0  0  0  0
160161  2  0  0  0  0
161162  1  0  0  0  0
162163  1  0  0  0  0
163164  1  0  0  0  0
161165  1  0  0  0  0
165166  2  0  0  0  0
165167  1  0  0  0  0
157168  2  0  0  0  0
168169  1  0  0  0  0
156170  1  0  0  0  0
170171  2  0  0  0  0
171172  1  0  0  0  0
  5  1  2  0  0  0  0
 41 13  1  0  0  0  0
 73 45  1  0  0  0  0
105 77  1  0  0  0  0
137109  1  0  0  0  0
169141  1  0  0  0  0
 12  4  1  0  0  0  0
 40 15  1  0  0  0  0
 72 47  1  0  0  0  0
104 79  1  0  0  0  0
136111  1  0  0  0  0
168143  1  0  0  0  0
 26 17  1  0  0  0  0
 44 27  1  0  0  0  0
 58 49  1  0  0  0  0
 76 59  1  0  0  0  0
 90 81  1  0  0  0  0
108 91  1  0  0  0  0
122113  1  0  0  0  0
140123  1  0  0  0  0
154145  1  0  0  0  0
172155  1  0  0  0  0
 38 30  1  0  0  0  0
 70 62  1  0  0  0  0
102 94  1  0  0  0  0
134126  1  0  0  0  0
166158  1  0  0  0  0
  1173  1  0  0  0  0
  6174  1  0  0  0  0
  8175  1  0  0  0  0
  8176  1  0  0  0  0
  8177  1  0  0  0  0
 11178  1  0  0  0  0
 11179  1  0  0  0  0
 11180  1  0  0  0  0
 12181  1  0  0  0  0
 14182  1  0  0  0  0
 18183  1  0  0  0  0
 19184  1  0  0  0  0
 22185  1  0  0  0  0
 22186  1  0  0  0  0
 23187  1  0  0  0  0
 23188  1  0  0  0  0
 23189  1  0  0  0  0
 26190  1  0  0  0  0
 31191  1  0  0  0  0
 32192  1  0  0  0  0
 35193  1  0  0  0  0
 35194  1  0  0  0  0
 36195  1  0  0  0  0
 36196  1  0  0  0  0
 36197  1  0  0  0  0
 38198  1  0  0  0  0
 42199  1  0  0  0  0
 46200  1  0  0  0  0
 50201  1  0  0  0  0
 51202  1  0  0  0  0
 54203  1  0  0  0  0
 54204  1  0  0  0  0
 55205  1  0  0  0  0
 55206  1  0  0  0  0
 55207  1  0  0  0  0
 58208  1  0  0  0  0
 63209  1  0  0  0  0
 64210  1  0  0  0  0
 67211  1  0  0  0  0
 67212  1  0  0  0  0
 68213  1  0  0  0  0
 68214  1  0  0  0  0
 68215  1  0  0  0  0
 70216  1  0  0  0  0
 74217  1  0  0  0  0
 78218  1  0  0  0  0
 82219  1  0  0  0  0
 83220  1  0  0  0  0
 86221  1  0  0  0  0
 86222  1  0  0  0  0
 87223  1  0  0  0  0
 87224  1  0  0  0  0
 87225  1  0  0  0  0
 90226  1  0  0  0  0
 95227  1  0  0  0  0
 96228  1  0  0  0  0
 99229  1  0  0  0  0
 99230  1  0  0  0  0
100231  1  0  0  0  0
100232  1  0  0  0  0
100233  1  0  0  0  0
102234  1  0  0  0  0
106235  1  0  0  0  0
110236  1  0  0  0  0
114237  1  0  0  0  0
115238  1  0  0  0  0
118239  1  0  0  0  0
118240  1  0  0  0  0
119241  1  0  0  0  0
119242  1  0  0  0  0
119243  1  0  0  0  0
122244  1  0  0  0  0
127245  1  0  0  0  0
128246  1  0  0  0  0
131247  1  0  0  0  0
131248  1  0  0  0  0
132249  1  0  0  0  0
132250  1  0  0  0  0
132251  1  0  0  0  0
134252  1  0  0  0  0
138253  1  0  0  0  0
142254  1  0  0  0  0
146255  1  0  0  0  0
147256  1  0  0  0  0
150257  1  0  0  0  0
150258  1  0  0  0  0
151259  1  0  0  0  0
151260  1  0  0  0  0
151261  1  0  0  0  0
154262  1  0  0  0  0
159263  1  0  0  0  0
160264  1  0  0  0  0
163265  1  0  0  0  0
163266  1  0  0  0  0
164267  1  0  0  0  0
164268  1  0  0  0  0
164269  1  0  0  0  0
166270  1  0  0  0  0
170271  1  0  0  0  0
171272  1  0  0  0  0
M  END
