
  xtb     03032209523D
 energy: -416.059062157515 gnorm: 0.000394370955 xtb: 6.4.1 (unknown)
242265  0     0  0            999 V2000
   -8.6141   -6.4981   12.3125 C   0  0  0  0  0  0  0  0  0  0  0  0
   -9.3696   -5.3813   12.3274 C   0  0  0  0  0  0  0  0  0  0  0  0
   -9.1865   -4.5706   11.1680 C   0  0  0  0  0  0  0  0  0  0  0  0
   -9.8279   -3.3651   10.8402 C   0  0  0  0  0  0  0  0  0  0  0  0
  -10.7489   -2.7010   11.7705 C   0  0  0  0  0  0  0  0  0  0  0  0
  -12.0104   -2.2739   11.3595 C   0  0  0  0  0  0  0  0  0  0  0  0
  -12.8506   -1.6223   12.2355 C   0  0  0  0  0  0  0  0  0  0  0  0
  -12.4743   -1.3706   13.5549 C   0  0  0  0  0  0  0  0  0  0  0  0
  -13.6555   -0.5560   14.5828 S   0  0  0  0  0  0  0  0  0  0  0  0
  -12.6340    0.3858   15.7861 C   0  0  0  0  0  0  0  0  0  0  0  0
  -13.4624    1.5282   16.3402 C   0  0  0  0  0  0  0  0  0  0  0  0
  -11.2214   -1.8230   13.9573 C   0  0  0  0  0  0  0  0  0  0  0  0
  -10.7930   -1.6530   15.2302 F   0  0  0  0  0  0  0  0  0  0  0  0
  -10.3648   -2.4652   13.0862 C   0  0  0  0  0  0  0  0  0  0  0  0
   -9.5241   -2.8167    9.6046 C   0  0  0  0  0  0  0  0  0  0  0  0
   -8.5951   -3.3952    8.7054 C   0  0  0  0  0  0  0  0  0  0  0  0
   -7.9409   -4.5927    9.0395 C   0  0  0  0  0  0  0  0  0  0  0  0
   -6.9706   -5.2050    8.1253 C   0  0  0  0  0  0  0  0  0  0  0  0
   -7.2873   -5.4288    6.7885 C   0  0  0  0  0  0  0  0  0  0  0  0
   -6.3711   -5.9852    5.9164 C   0  0  0  0  0  0  0  0  0  0  0  0
   -5.0971   -6.3324    6.3507 C   0  0  0  0  0  0  0  0  0  0  0  0
   -3.8136   -7.0198    5.3609 S   0  0  0  0  0  0  0  0  0  0  0  0
   -4.5187   -7.1319    3.6831 C   0  0  0  0  0  0  0  0  0  0  0  0
   -5.3990   -8.3545    3.5059 C   0  0  0  0  0  0  0  0  0  0  0  0
   -4.7958   -6.1068    7.6960 C   0  0  0  0  0  0  0  0  0  0  0  0
   -5.7012   -5.5629    8.5768 C   0  0  0  0  0  0  0  0  0  0  0  0
   -3.5612   -6.4175    8.1451 F   0  0  0  0  0  0  0  0  0  0  0  0
   -8.2564   -5.1487   10.2710 C   0  0  0  0  0  0  0  0  0  0  0  0
   -7.6275   -6.6508   10.8992 S   0  0  0  0  0  0  0  0  0  0  0  0
   -8.4076   -2.5949    7.5555 C   0  0  0  0  0  0  0  0  0  0  0  0
   -9.1556   -1.4477    7.5374 C   0  0  0  0  0  0  0  0  0  0  0  0
  -10.1479   -1.3101    8.9802 S   0  0  0  0  0  0  0  0  0  0  0  0
   -9.1379   -0.4779    6.5024 C   0  0  0  0  0  0  0  0  0  0  0  0
   -8.1912   -0.8244    5.0882 S   0  0  0  0  0  0  0  0  0  0  0  0
   -8.5708    0.6966    4.3424 C   0  0  0  0  0  0  0  0  0  0  0  0
   -9.3769    1.4666    5.1896 C   0  0  0  0  0  0  0  0  0  0  0  0
   -9.7243    0.7873    6.3985 C   0  0  0  0  0  0  0  0  0  0  0  0
  -10.5533    1.4453    7.3324 C   0  0  0  0  0  0  0  0  0  0  0  0
  -10.9845    2.7200    7.1129 C   0  0  0  0  0  0  0  0  0  0  0  0
  -11.8700    3.4328    8.0826 C   0  0  0  0  0  0  0  0  0  0  0  0
  -10.5615    3.4200    5.9390 C   0  0  0  0  0  0  0  0  0  0  0  0
  -11.0063    4.7024    5.8521 O   0  0  0  0  0  0  0  0  0  0  0  0
  -10.6446    5.4632    4.7260 C   0  0  0  0  0  0  0  0  0  0  0  0
   -9.7685    2.8083    5.0050 C   0  0  0  0  0  0  0  0  0  0  0  0
   -7.9997    0.9991    3.0829 C   0  0  0  0  0  0  0  0  0  0  0  0
   -6.4424    0.3367    2.6973 S   0  0  0  0  0  0  0  0  0  0  0  0
   -6.3569    1.1775    1.1783 C   0  0  0  0  0  0  0  0  0  0  0  0
   -7.5226    1.9197    0.9639 C   0  0  0  0  0  0  0  0  0  0  0  0
   -8.4702    1.7862    2.0252 C   0  0  0  0  0  0  0  0  0  0  0  0
   -9.7551    2.3490    1.8672 C   0  0  0  0  0  0  0  0  0  0  0  0
  -10.0618    3.0968    0.7689 C   0  0  0  0  0  0  0  0  0  0  0  0
  -11.4141    3.7048    0.5762 C   0  0  0  0  0  0  0  0  0  0  0  0
   -9.0751    3.3018   -0.2473 C   0  0  0  0  0  0  0  0  0  0  0  0
   -9.4798    4.0856   -1.2794 O   0  0  0  0  0  0  0  0  0  0  0  0
   -8.5807    4.3232   -2.3365 C   0  0  0  0  0  0  0  0  0  0  0  0
   -7.8449    2.7049   -0.1608 C   0  0  0  0  0  0  0  0  0  0  0  0
   -5.1868    1.0184    0.3956 C   0  0  0  0  0  0  0  0  0  0  0  0
   -4.2272    0.0569    0.5731 C   0  0  0  0  0  0  0  0  0  0  0  0
   -3.1282    0.1637   -0.3080 C   0  0  0  0  0  0  0  0  0  0  0  0
   -1.9884   -0.6562   -0.3780 C   0  0  0  0  0  0  0  0  0  0  0  0
   -1.8078   -1.7927    0.5335 C   0  0  0  0  0  0  0  0  0  0  0  0
   -1.9191   -1.6358    1.9118 C   0  0  0  0  0  0  0  0  0  0  0  0
   -1.7542   -2.7059    2.7703 C   0  0  0  0  0  0  0  0  0  0  0  0
   -1.4723   -3.9760    2.2798 C   0  0  0  0  0  0  0  0  0  0  0  0
   -1.2662   -5.4307    3.2512 S   0  0  0  0  0  0  0  0  0  0  0  0
   -1.0922   -4.8211    4.9608 C   0  0  0  0  0  0  0  0  0  0  0  0
    0.2391   -4.1333    5.1917 C   0  0  0  0  0  0  0  0  0  0  0  0
   -1.3687   -4.1184    0.8943 C   0  0  0  0  0  0  0  0  0  0  0  0
   -1.1179   -5.3400    0.3805 F   0  0  0  0  0  0  0  0  0  0  0  0
   -1.5235   -3.0602    0.0287 C   0  0  0  0  0  0  0  0  0  0  0  0
   -1.0476   -0.3301   -1.3417 C   0  0  0  0  0  0  0  0  0  0  0  0
   -1.1743    0.7827   -2.2110 C   0  0  0  0  0  0  0  0  0  0  0  0
   -2.3202    1.5950   -2.1492 C   0  0  0  0  0  0  0  0  0  0  0  0
   -2.4884    2.7727   -3.0092 C   0  0  0  0  0  0  0  0  0  0  0  0
   -1.4932    3.7441   -3.1058 C   0  0  0  0  0  0  0  0  0  0  0  0
   -1.6740    4.8572   -3.8982 C   0  0  0  0  0  0  0  0  0  0  0  0
   -2.8533    5.0573   -4.6137 C   0  0  0  0  0  0  0  0  0  0  0  0
   -2.9883    6.5532   -5.5486 S   0  0  0  0  0  0  0  0  0  0  0  0
   -3.8459    6.0466   -7.0851 C   0  0  0  0  0  0  0  0  0  0  0  0
   -3.0978    4.9527   -7.8197 C   0  0  0  0  0  0  0  0  0  0  0  0
   -3.8490    4.0948   -4.4840 C   0  0  0  0  0  0  0  0  0  0  0  0
   -3.6724    2.9637   -3.7137 C   0  0  0  0  0  0  0  0  0  0  0  0
   -5.0395    4.2357   -5.1114 F   0  0  0  0  0  0  0  0  0  0  0  0
   -3.2737    1.2497   -1.2067 C   0  0  0  0  0  0  0  0  0  0  0  0
   -4.7650    2.1079   -0.9159 S   0  0  0  0  0  0  0  0  0  0  0  0
   -0.0542    0.9125   -3.0679 C   0  0  0  0  0  0  0  0  0  0  0  0
    0.9071   -0.0319   -2.8587 C   0  0  0  0  0  0  0  0  0  0  0  0
    0.4618   -1.1674   -1.5986 S   0  0  0  0  0  0  0  0  0  0  0  0
    2.1720   -0.1429   -3.5051 C   0  0  0  0  0  0  0  0  0  0  0  0
    3.1099   -1.1194   -3.3485 C   0  0  0  0  0  0  0  0  0  0  0  0
    4.2924   -0.9002   -4.0994 C   0  0  0  0  0  0  0  0  0  0  0  0
    5.4446   -1.7043   -4.1508 C   0  0  0  0  0  0  0  0  0  0  0  0
    5.5062   -3.0142   -3.4930 C   0  0  0  0  0  0  0  0  0  0  0  0
    4.4854   -3.9489   -3.6661 C   0  0  0  0  0  0  0  0  0  0  0  0
    4.5817   -5.2059   -3.1092 C   0  0  0  0  0  0  0  0  0  0  0  0
    5.6905   -5.5812   -2.3533 C   0  0  0  0  0  0  0  0  0  0  0  0
    5.7079   -7.2154   -1.6764 S   0  0  0  0  0  0  0  0  0  0  0  0
    7.4299   -7.7732   -1.9580 C   0  0  0  0  0  0  0  0  0  0  0  0
    7.8151   -7.7069   -3.4222 C   0  0  0  0  0  0  0  0  0  0  0  0
    6.6820   -4.6257   -2.1551 C   0  0  0  0  0  0  0  0  0  0  0  0
    7.7658   -4.9000   -1.3943 F   0  0  0  0  0  0  0  0  0  0  0  0
    6.6071   -3.3693   -2.7199 C   0  0  0  0  0  0  0  0  0  0  0  0
    6.5141   -1.2083   -4.8827 C   0  0  0  0  0  0  0  0  0  0  0  0
    6.4534    0.0093   -5.6021 C   0  0  0  0  0  0  0  0  0  0  0  0
    5.2824    0.7848   -5.5998 C   0  0  0  0  0  0  0  0  0  0  0  0
    5.2331    2.0281   -6.3799 C   0  0  0  0  0  0  0  0  0  0  0  0
    4.8876    3.2422   -5.7949 C   0  0  0  0  0  0  0  0  0  0  0  0
    4.9443    4.4198   -6.5157 C   0  0  0  0  0  0  0  0  0  0  0  0
    5.3482    4.4232   -7.8458 C   0  0  0  0  0  0  0  0  0  0  0  0
    5.4893    5.8687   -8.8490 S   0  0  0  0  0  0  0  0  0  0  0  0
    5.8829    7.1816   -7.6403 C   0  0  0  0  0  0  0  0  0  0  0  0
    7.2049    6.9365   -6.9398 C   0  0  0  0  0  0  0  0  0  0  0  0
    5.6403    3.1930   -8.4345 C   0  0  0  0  0  0  0  0  0  0  0  0
    5.5927    2.0133   -7.7268 C   0  0  0  0  0  0  0  0  0  0  0  0
    6.0012    3.1530   -9.7325 F   0  0  0  0  0  0  0  0  0  0  0  0
    4.2366    0.3198   -4.8217 C   0  0  0  0  0  0  0  0  0  0  0  0
    2.7001    1.1162   -4.6075 S   0  0  0  0  0  0  0  0  0  0  0  0
    7.6828    0.3139   -6.2337 C   0  0  0  0  0  0  0  0  0  0  0  0
    8.6465   -0.6289   -6.0422 C   0  0  0  0  0  0  0  0  0  0  0  0
    8.0774   -1.9689   -5.0680 S   0  0  0  0  0  0  0  0  0  0  0  0
    9.9913   -0.5610   -6.5086 C   0  0  0  0  0  0  0  0  0  0  0  0
   11.0191   -1.4294   -6.3006 C   0  0  0  0  0  0  0  0  0  0  0  0
   12.2452   -1.0041   -6.8781 C   0  0  0  0  0  0  0  0  0  0  0  0
   13.4870   -1.6600   -6.8721 C   0  0  0  0  0  0  0  0  0  0  0  0
   13.6717   -2.9055   -6.1195 C   0  0  0  0  0  0  0  0  0  0  0  0
   13.2617   -2.9900   -4.7910 C   0  0  0  0  0  0  0  0  0  0  0  0
   13.4039   -4.1585   -4.0699 C   0  0  0  0  0  0  0  0  0  0  0  0
   13.9528   -5.2935   -4.6561 C   0  0  0  0  0  0  0  0  0  0  0  0
   14.1796   -6.8451   -3.8533 S   0  0  0  0  0  0  0  0  0  0  0  0
   13.1090   -6.7406   -2.3765 C   0  0  0  0  0  0  0  0  0  0  0  0
   11.6342   -6.7523   -2.7308 C   0  0  0  0  0  0  0  0  0  0  0  0
   14.3834   -5.1870   -5.9801 C   0  0  0  0  0  0  0  0  0  0  0  0
   14.9338   -6.2630   -6.5763 F   0  0  0  0  0  0  0  0  0  0  0  0
   14.2554   -4.0251   -6.7077 C   0  0  0  0  0  0  0  0  0  0  0  0
   14.5129   -1.0558   -7.5871 C   0  0  0  0  0  0  0  0  0  0  0  0
   14.3637    0.1740   -8.2755 C   0  0  0  0  0  0  0  0  0  0  0  0
   13.1319    0.8399   -8.2609 C   0  0  0  0  0  0  0  0  0  0  0  0
   12.8766    2.1051   -8.9624 C   0  0  0  0  0  0  0  0  0  0  0  0
   13.1237    2.2484  -10.3258 C   0  0  0  0  0  0  0  0  0  0  0  0
   12.7314    3.3912  -10.9911 C   0  0  0  0  0  0  0  0  0  0  0  0
   12.0972    4.4376  -10.3246 C   0  0  0  0  0  0  0  0  0  0  0  0
   11.5824    5.8367  -11.2754 S   0  0  0  0  0  0  0  0  0  0  0  0
    9.9319    6.2385  -10.5830 C   0  0  0  0  0  0  0  0  0  0  0  0
    8.9963    5.0472  -10.5848 C   0  0  0  0  0  0  0  0  0  0  0  0
   11.9291    4.3118   -8.9492 C   0  0  0  0  0  0  0  0  0  0  0  0
   12.2909    3.1642   -8.2758 C   0  0  0  0  0  0  0  0  0  0  0  0
   11.3896    5.3158   -8.2222 F   0  0  0  0  0  0  0  0  0  0  0  0
   12.1045    0.2284   -7.5586 C   0  0  0  0  0  0  0  0  0  0  0  0
   10.4762    0.8378   -7.4481 S   0  0  0  0  0  0  0  0  0  0  0  0
   15.5872    0.5954   -8.8750 C   0  0  0  0  0  0  0  0  0  0  0  0
   16.6004   -0.2671   -8.6580 C   0  0  0  0  0  0  0  0  0  0  0  0
   16.1502   -1.6462   -7.7149 S   0  0  0  0  0  0  0  0  0  0  0  0
   -8.5642   -7.2695   13.0560 H   0  0  0  0  0  0  0  0  0  0  0  0
  -10.0553   -5.1367   13.1180 H   0  0  0  0  0  0  0  0  0  0  0  0
  -12.3365   -2.4632   10.3486 H   0  0  0  0  0  0  0  0  0  0  0  0
  -13.8258   -1.2920   11.9131 H   0  0  0  0  0  0  0  0  0  0  0  0
  -11.7622    0.7560   15.2488 H   0  0  0  0  0  0  0  0  0  0  0  0
  -12.3204   -0.2921   16.5783 H   0  0  0  0  0  0  0  0  0  0  0  0
  -12.8702    2.0976   17.0533 H   0  0  0  0  0  0  0  0  0  0  0  0
  -13.7822    2.1921   15.5402 H   0  0  0  0  0  0  0  0  0  0  0  0
  -14.3465    1.1475   16.8463 H   0  0  0  0  0  0  0  0  0  0  0  0
   -9.3930   -2.7678   13.4448 H   0  0  0  0  0  0  0  0  0  0  0  0
   -8.2751   -5.1842    6.4279 H   0  0  0  0  0  0  0  0  0  0  0  0
   -6.6615   -6.1419    4.8905 H   0  0  0  0  0  0  0  0  0  0  0  0
   -5.0420   -6.2008    3.4699 H   0  0  0  0  0  0  0  0  0  0  0  0
   -3.6395   -7.1902    3.0410 H   0  0  0  0  0  0  0  0  0  0  0  0
   -6.2439   -8.3379    4.1913 H   0  0  0  0  0  0  0  0  0  0  0  0
   -5.7774   -8.3914    2.4861 H   0  0  0  0  0  0  0  0  0  0  0  0
   -4.8247   -9.2581    3.6953 H   0  0  0  0  0  0  0  0  0  0  0  0
   -5.4055   -5.3987    9.6008 H   0  0  0  0  0  0  0  0  0  0  0  0
   -7.7139   -2.8401    6.7712 H   0  0  0  0  0  0  0  0  0  0  0  0
  -10.8467    0.9335    8.2348 H   0  0  0  0  0  0  0  0  0  0  0  0
  -12.7922    3.7376    7.5904 H   0  0  0  0  0  0  0  0  0  0  0  0
  -12.1079    2.7949    8.9291 H   0  0  0  0  0  0  0  0  0  0  0  0
  -11.3807    4.3379    8.4390 H   0  0  0  0  0  0  0  0  0  0  0  0
  -11.0029    5.0052    3.7984 H   0  0  0  0  0  0  0  0  0  0  0  0
  -11.1226    6.4323    4.8594 H   0  0  0  0  0  0  0  0  0  0  0  0
   -9.5603    5.5998    4.6639 H   0  0  0  0  0  0  0  0  0  0  0  0
   -9.4086    3.3358    4.1385 H   0  0  0  0  0  0  0  0  0  0  0  0
  -10.5103    2.1509    2.6122 H   0  0  0  0  0  0  0  0  0  0  0  0
  -11.8506    3.3557   -0.3580 H   0  0  0  0  0  0  0  0  0  0  0  0
  -11.3298    4.7885    0.5063 H   0  0  0  0  0  0  0  0  0  0  0  0
  -12.0765    3.4467    1.3984 H   0  0  0  0  0  0  0  0  0  0  0  0
   -8.3134    3.3959   -2.8522 H   0  0  0  0  0  0  0  0  0  0  0  0
   -9.1051    4.9811   -3.0273 H   0  0  0  0  0  0  0  0  0  0  0  0
   -7.6689    4.8163   -1.9860 H   0  0  0  0  0  0  0  0  0  0  0  0
   -7.1178    2.8110   -0.9467 H   0  0  0  0  0  0  0  0  0  0  0  0
   -4.3242   -0.7197    1.3105 H   0  0  0  0  0  0  0  0  0  0  0  0
   -2.1179   -0.6571    2.3222 H   0  0  0  0  0  0  0  0  0  0  0  0
   -1.8546   -2.5407    3.8307 H   0  0  0  0  0  0  0  0  0  0  0  0
   -1.1743   -5.7260    5.5623 H   0  0  0  0  0  0  0  0  0  0  0  0
   -1.9428   -4.1810    5.1905 H   0  0  0  0  0  0  0  0  0  0  0  0
    0.3469   -3.2569    4.5553 H   0  0  0  0  0  0  0  0  0  0  0  0
    0.3152   -3.8212    6.2314 H   0  0  0  0  0  0  0  0  0  0  0  0
    1.0564   -4.8167    4.9735 H   0  0  0  0  0  0  0  0  0  0  0  0
   -1.4418   -3.2336   -1.0327 H   0  0  0  0  0  0  0  0  0  0  0  0
   -0.5803    3.6314   -2.5414 H   0  0  0  0  0  0  0  0  0  0  0  0
   -0.9003    5.6054   -3.9735 H   0  0  0  0  0  0  0  0  0  0  0  0
   -4.8649    5.7532   -6.8426 H   0  0  0  0  0  0  0  0  0  0  0  0
   -3.8709    6.9666   -7.6693 H   0  0  0  0  0  0  0  0  0  0  0  0
   -3.0761    4.0357   -7.2336 H   0  0  0  0  0  0  0  0  0  0  0  0
   -3.5927    4.7432   -8.7658 H   0  0  0  0  0  0  0  0  0  0  0  0
   -2.0732    5.2584   -8.0208 H   0  0  0  0  0  0  0  0  0  0  0  0
   -4.4688    2.2372   -3.6729 H   0  0  0  0  0  0  0  0  0  0  0  0
    0.0386    1.6744   -3.8214 H   0  0  0  0  0  0  0  0  0  0  0  0
    2.9662   -1.9589   -2.6918 H   0  0  0  0  0  0  0  0  0  0  0  0
    3.6303   -3.6988   -4.2752 H   0  0  0  0  0  0  0  0  0  0  0  0
    3.7974   -5.9313   -3.2593 H   0  0  0  0  0  0  0  0  0  0  0  0
    7.4192   -8.8026   -1.6003 H   0  0  0  0  0  0  0  0  0  0  0  0
    8.0996   -7.1875   -1.3322 H   0  0  0  0  0  0  0  0  0  0  0  0
    7.1015   -8.2601   -4.0291 H   0  0  0  0  0  0  0  0  0  0  0  0
    7.8408   -6.6764   -3.7719 H   0  0  0  0  0  0  0  0  0  0  0  0
    8.8027   -8.1411   -3.5619 H   0  0  0  0  0  0  0  0  0  0  0  0
    7.4021   -2.6674   -2.5235 H   0  0  0  0  0  0  0  0  0  0  0  0
    4.5959    3.2709   -4.7563 H   0  0  0  0  0  0  0  0  0  0  0  0
    4.6758    5.3445   -6.0303 H   0  0  0  0  0  0  0  0  0  0  0  0
    5.0541    7.2773   -6.9401 H   0  0  0  0  0  0  0  0  0  0  0  0
    5.9256    8.0823   -8.2526 H   0  0  0  0  0  0  0  0  0  0  0  0
    7.4350    7.7727   -6.2828 H   0  0  0  0  0  0  0  0  0  0  0  0
    7.1670    6.0270   -6.3435 H   0  0  0  0  0  0  0  0  0  0  0  0
    8.0065    6.8357   -7.6678 H   0  0  0  0  0  0  0  0  0  0  0  0
    5.8323    1.0887   -8.2285 H   0  0  0  0  0  0  0  0  0  0  0  0
    7.8615    1.2169   -6.7894 H   0  0  0  0  0  0  0  0  0  0  0  0
   10.8970   -2.3533   -5.7640 H   0  0  0  0  0  0  0  0  0  0  0  0
   12.8462   -2.1194   -4.3062 H   0  0  0  0  0  0  0  0  0  0  0  0
   13.0867   -4.1746   -3.0399 H   0  0  0  0  0  0  0  0  0  0  0  0
   13.3775   -7.6305   -1.8072 H   0  0  0  0  0  0  0  0  0  0  0  0
   13.3927   -5.8627   -1.7980 H   0  0  0  0  0  0  0  0  0  0  0  0
   11.3703   -5.8934   -3.3440 H   0  0  0  0  0  0  0  0  0  0  0  0
   11.3926   -7.6562   -3.2852 H   0  0  0  0  0  0  0  0  0  0  0  0
   11.0341   -6.7265   -1.8234 H   0  0  0  0  0  0  0  0  0  0  0  0
   14.5866   -4.0099   -7.7338 H   0  0  0  0  0  0  0  0  0  0  0  0
   13.5805    1.4381  -10.8735 H   0  0  0  0  0  0  0  0  0  0  0  0
   12.8909    3.4863  -12.0539 H   0  0  0  0  0  0  0  0  0  0  0  0
   10.0648    6.6562   -9.5868 H   0  0  0  0  0  0  0  0  0  0  0  0
    9.5719    7.0213  -11.2506 H   0  0  0  0  0  0  0  0  0  0  0  0
    7.9995    5.3601  -10.2813 H   0  0  0  0  0  0  0  0  0  0  0  0
    8.9305    4.6129  -11.5798 H   0  0  0  0  0  0  0  0  0  0  0  0
    9.3383    4.2769   -9.8958 H   0  0  0  0  0  0  0  0  0  0  0  0
   12.1255    3.1148   -7.2108 H   0  0  0  0  0  0  0  0  0  0  0  0
   15.6865    1.5124   -9.4271 H   0  0  0  0  0  0  0  0  0  0  0  0
   17.6154   -0.1899   -8.9960 H   0  0  0  0  0  0  0  0  0  0  0  0
  1  2  2  0  0  0  0
  2  3  1  0  0  0  0
  3  4  2  0  0  0  0
  4  5  1  0  0  0  0
  5  6  2  0  0  0  0
  6  7  1  0  0  0  0
  7  8  2  0  0  0  0
  8  9  1  0  0  0  0
  9 10  1  0  0  0  0
 10 11  1  0  0  0  0
  8 12  1  0  0  0  0
 12 13  1  0  0  0  0
 12 14  2  0  0  0  0
  4 15  1  0  0  0  0
 15 16  2  0  0  0  0
 16 17  1  0  0  0  0
 17 18  1  0  0  0  0
 18 19  2  0  0  0  0
 19 20  1  0  0  0  0
 20 21  2  0  0  0  0
 21 22  1  0  0  0  0
 22 23  1  0  0  0  0
 23 24  1  0  0  0  0
 21 25  1  0  0  0  0
 25 26  2  0  0  0  0
 25 27  1  0  0  0  0
 17 28  2  0  0  0  0
 28 29  1  0  0  0  0
 16 30  1  0  0  0  0
 30 31  2  0  0  0  0
 31 32  1  0  0  0  0
 31 33  1  0  0  0  0
 33 34  1  0  0  0  0
 34 35  1  0  0  0  0
 35 36  2  0  0  0  0
 36 37  1  0  0  0  0
 37 38  1  0  0  0  0
 38 39  2  0  0  0  0
 39 40  1  0  0  0  0
 39 41  1  0  0  0  0
 41 42  1  0  0  0  0
 42 43  1  0  0  0  0
 41 44  2  0  0  0  0
 35 45  1  0  0  0  0
 45 46  1  0  0  0  0
 46 47  1  0  0  0  0
 47 48  2  0  0  0  0
 48 49  1  0  0  0  0
 49 50  1  0  0  0  0
 50 51  2  0  0  0  0
 51 52  1  0  0  0  0
 51 53  1  0  0  0  0
 53 54  1  0  0  0  0
 54 55  1  0  0  0  0
 53 56  2  0  0  0  0
 47 57  1  0  0  0  0
 57 58  2  0  0  0  0
 58 59  1  0  0  0  0
 59 60  2  0  0  0  0
 60 61  1  0  0  0  0
 61 62  2  0  0  0  0
 62 63  1  0  0  0  0
 63 64  2  0  0  0  0
 64 65  1  0  0  0  0
 65 66  1  0  0  0  0
 66 67  1  0  0  0  0
 64 68  1  0  0  0  0
 68 69  1  0  0  0  0
 68 70  2  0  0  0  0
 60 71  1  0  0  0  0
 71 72  2  0  0  0  0
 72 73  1  0  0  0  0
 73 74  1  0  0  0  0
 74 75  2  0  0  0  0
 75 76  1  0  0  0  0
 76 77  2  0  0  0  0
 77 78  1  0  0  0  0
 78 79  1  0  0  0  0
 79 80  1  0  0  0  0
 77 81  1  0  0  0  0
 81 82  2  0  0  0  0
 81 83  1  0  0  0  0
 73 84  2  0  0  0  0
 84 85  1  0  0  0  0
 72 86  1  0  0  0  0
 86 87  2  0  0  0  0
 87 88  1  0  0  0  0
 87 89  1  0  0  0  0
 89 90  2  0  0  0  0
 90 91  1  0  0  0  0
 91 92  2  0  0  0  0
 92 93  1  0  0  0  0
 93 94  2  0  0  0  0
 94 95  1  0  0  0  0
 95 96  2  0  0  0  0
 96 97  1  0  0  0  0
 97 98  1  0  0  0  0
 98 99  1  0  0  0  0
 96100  1  0  0  0  0
100101  1  0  0  0  0
100102  2  0  0  0  0
 92103  1  0  0  0  0
103104  2  0  0  0  0
104105  1  0  0  0  0
105106  1  0  0  0  0
106107  2  0  0  0  0
107108  1  0  0  0  0
108109  2  0  0  0  0
109110  1  0  0  0  0
110111  1  0  0  0  0
111112  1  0  0  0  0
109113  1  0  0  0  0
113114  2  0  0  0  0
113115  1  0  0  0  0
105116  2  0  0  0  0
116117  1  0  0  0  0
104118  1  0  0  0  0
118119  2  0  0  0  0
119120  1  0  0  0  0
119121  1  0  0  0  0
121122  2  0  0  0  0
122123  1  0  0  0  0
123124  2  0  0  0  0
124125  1  0  0  0  0
125126  2  0  0  0  0
126127  1  0  0  0  0
127128  2  0  0  0  0
128129  1  0  0  0  0
129130  1  0  0  0  0
130131  1  0  0  0  0
128132  1  0  0  0  0
132133  1  0  0  0  0
132134  2  0  0  0  0
124135  1  0  0  0  0
135136  2  0  0  0  0
136137  1  0  0  0  0
137138  1  0  0  0  0
138139  2  0  0  0  0
139140  1  0  0  0  0
140141  2  0  0  0  0
141142  1  0  0  0  0
142143  1  0  0  0  0
143144  1  0  0  0  0
141145  1  0  0  0  0
145146  2  0  0  0  0
145147  1  0  0  0  0
137148  2  0  0  0  0
148149  1  0  0  0  0
136150  1  0  0  0  0
150151  2  0  0  0  0
151152  1  0  0  0  0
 29  1  1  0  0  0  0
 37 33  2  0  0  0  0
 49 45  2  0  0  0  0
 85 57  1  0  0  0  0
117 89  1  0  0  0  0
149121  1  0  0  0  0
 28  3  1  0  0  0  0
 44 36  1  0  0  0  0
 56 48  1  0  0  0  0
 84 59  1  0  0  0  0
116 91  1  0  0  0  0
148123  1  0  0  0  0
 14  5  1  0  0  0  0
 32 15  1  0  0  0  0
 70 61  1  0  0  0  0
 88 71  1  0  0  0  0
102 93  1  0  0  0  0
120103  1  0  0  0  0
134125  1  0  0  0  0
152135  1  0  0  0  0
 26 18  1  0  0  0  0
 82 74  1  0  0  0  0
114106  1  0  0  0  0
146138  1  0  0  0  0
  1153  1  0  0  0  0
  2154  1  0  0  0  0
  6155  1  0  0  0  0
  7156  1  0  0  0  0
 10157  1  0  0  0  0
 10158  1  0  0  0  0
 11159  1  0  0  0  0
 11160  1  0  0  0  0
 11161  1  0  0  0  0
 14162  1  0  0  0  0
 19163  1  0  0  0  0
 20164  1  0  0  0  0
 23165  1  0  0  0  0
 23166  1  0  0  0  0
 24167  1  0  0  0  0
 24168  1  0  0  0  0
 24169  1  0  0  0  0
 26170  1  0  0  0  0
 30171  1  0  0  0  0
 38172  1  0  0  0  0
 40173  1  0  0  0  0
 40174  1  0  0  0  0
 40175  1  0  0  0  0
 43176  1  0  0  0  0
 43177  1  0  0  0  0
 43178  1  0  0  0  0
 44179  1  0  0  0  0
 50180  1  0  0  0  0
 52181  1  0  0  0  0
 52182  1  0  0  0  0
 52183  1  0  0  0  0
 55184  1  0  0  0  0
 55185  1  0  0  0  0
 55186  1  0  0  0  0
 56187  1  0  0  0  0
 58188  1  0  0  0  0
 62189  1  0  0  0  0
 63190  1  0  0  0  0
 66191  1  0  0  0  0
 66192  1  0  0  0  0
 67193  1  0  0  0  0
 67194  1  0  0  0  0
 67195  1  0  0  0  0
 70196  1  0  0  0  0
 75197  1  0  0  0  0
 76198  1  0  0  0  0
 79199  1  0  0  0  0
 79200  1  0  0  0  0
 80201  1  0  0  0  0
 80202  1  0  0  0  0
 80203  1  0  0  0  0
 82204  1  0  0  0  0
 86205  1  0  0  0  0
 90206  1  0  0  0  0
 94207  1  0  0  0  0
 95208  1  0  0  0  0
 98209  1  0  0  0  0
 98210  1  0  0  0  0
 99211  1  0  0  0  0
 99212  1  0  0  0  0
 99213  1  0  0  0  0
102214  1  0  0  0  0
107215  1  0  0  0  0
108216  1  0  0  0  0
111217  1  0  0  0  0
111218  1  0  0  0  0
112219  1  0  0  0  0
112220  1  0  0  0  0
112221  1  0  0  0  0
114222  1  0  0  0  0
118223  1  0  0  0  0
122224  1  0  0  0  0
126225  1  0  0  0  0
127226  1  0  0  0  0
130227  1  0  0  0  0
130228  1  0  0  0  0
131229  1  0  0  0  0
131230  1  0  0  0  0
131231  1  0  0  0  0
134232  1  0  0  0  0
139233  1  0  0  0  0
140234  1  0  0  0  0
143235  1  0  0  0  0
143236  1  0  0  0  0
144237  1  0  0  0  0
144238  1  0  0  0  0
144239  1  0  0  0  0
146240  1  0  0  0  0
150241  1  0  0  0  0
151242  1  0  0  0  0
M  END
