
  xtb     03032200583D
 energy: -404.619958378314 gnorm: 0.000188248456 xtb: 6.4.1 (unknown)
210233  0     0  0            999 V2000
    3.3214    4.4545   11.6337 C   0  0  0  0  0  0  0  0  0  0  0  0
    2.8884    5.0175   10.4874 C   0  0  0  0  0  0  0  0  0  0  0  0
    1.5390    4.6779   10.1800 C   0  0  0  0  0  0  0  0  0  0  0  0
    0.7577    5.0994    9.0924 C   0  0  0  0  0  0  0  0  0  0  0  0
    1.2788    6.0069    8.0812 C   0  0  0  0  0  0  0  0  0  0  0  0
    1.2537    5.5780    6.3961 S   0  0  0  0  0  0  0  0  0  0  0  0
    2.0029    7.0647    5.9276 C   0  0  0  0  0  0  0  0  0  0  0  0
    2.2536    7.3848    4.4955 C   0  0  0  0  0  0  0  0  0  0  0  0
    1.0004    7.9691    3.8399 C   0  0  0  0  0  0  0  0  0  0  0  0
    2.2375    7.8433    7.0215 C   0  0  0  0  0  0  0  0  0  0  0  0
    2.9587    9.3995    6.9525 Cl  0  0  0  0  0  0  0  0  0  0  0  0
    1.8342    7.2443    8.2449 C   0  0  0  0  0  0  0  0  0  0  0  0
    1.9707    8.0448    9.7578 Cl  0  0  0  0  0  0  0  0  0  0  0  0
   -0.5322    4.5967    9.0105 C   0  0  0  0  0  0  0  0  0  0  0  0
   -1.0758    3.6938    9.9559 C   0  0  0  0  0  0  0  0  0  0  0  0
   -0.2921    3.2679   11.0420 C   0  0  0  0  0  0  0  0  0  0  0  0
   -0.8055    2.3134   12.0109 C   0  0  0  0  0  0  0  0  0  0  0  0
   -2.2966    2.5960   12.8613 S   0  0  0  0  0  0  0  0  0  0  0  0
   -2.1793    1.1014   13.7309 C   0  0  0  0  0  0  0  0  0  0  0  0
   -3.2370    0.6853   14.6930 C   0  0  0  0  0  0  0  0  0  0  0  0
   -4.6016    0.5825   14.0123 C   0  0  0  0  0  0  0  0  0  0  0  0
   -1.0484    0.4352   13.3678 C   0  0  0  0  0  0  0  0  0  0  0  0
   -0.2668    1.1182   12.3961 C   0  0  0  0  0  0  0  0  0  0  0  0
    1.1558    0.4388   11.7242 Cl  0  0  0  0  0  0  0  0  0  0  0  0
   -0.5842   -1.0902   14.0031 Cl  0  0  0  0  0  0  0  0  0  0  0  0
    0.9948    3.7860   11.1352 C   0  0  0  0  0  0  0  0  0  0  0  0
    2.1376    3.4590   12.4069 S   0  0  0  0  0  0  0  0  0  0  0  0
   -2.3883    3.2885    9.6131 C   0  0  0  0  0  0  0  0  0  0  0  0
   -2.8628    3.8697    8.4690 C   0  0  0  0  0  0  0  0  0  0  0  0
   -1.6837    4.9686    7.7629 S   0  0  0  0  0  0  0  0  0  0  0  0
   -4.0586    3.6183    7.7457 C   0  0  0  0  0  0  0  0  0  0  0  0
   -4.1081    4.0890    6.0813 S   0  0  0  0  0  0  0  0  0  0  0  0
   -5.6156    3.2775    5.7918 C   0  0  0  0  0  0  0  0  0  0  0  0
   -6.0762    2.6737    6.9706 C   0  0  0  0  0  0  0  0  0  0  0  0
   -5.2140    2.9064    8.0883 C   0  0  0  0  0  0  0  0  0  0  0  0
   -5.5984    2.4183    9.3558 C   0  0  0  0  0  0  0  0  0  0  0  0
   -6.7211    1.6582    9.5043 C   0  0  0  0  0  0  0  0  0  0  0  0
   -7.1581    1.1396   10.8360 C   0  0  0  0  0  0  0  0  0  0  0  0
   -7.5010    1.3176    8.3550 C   0  0  0  0  0  0  0  0  0  0  0  0
   -8.5517    0.4908    8.6077 O   0  0  0  0  0  0  0  0  0  0  0  0
   -9.3773    0.1076    7.5358 C   0  0  0  0  0  0  0  0  0  0  0  0
   -7.1877    1.8202    7.1198 C   0  0  0  0  0  0  0  0  0  0  0  0
   -6.0491    3.1874    4.4461 C   0  0  0  0  0  0  0  0  0  0  0  0
   -4.8073    3.2650    3.2369 S   0  0  0  0  0  0  0  0  0  0  0  0
   -5.9042    2.8851    1.9472 C   0  0  0  0  0  0  0  0  0  0  0  0
   -7.2048    2.7506    2.4357 C   0  0  0  0  0  0  0  0  0  0  0  0
   -7.2969    2.9723    3.8460 C   0  0  0  0  0  0  0  0  0  0  0  0
   -8.5771    3.0313    4.4361 C   0  0  0  0  0  0  0  0  0  0  0  0
   -9.6987    2.7733    3.7027 C   0  0  0  0  0  0  0  0  0  0  0  0
  -11.0667    2.8299    4.3041 C   0  0  0  0  0  0  0  0  0  0  0  0
   -9.5839    2.4516    2.3128 C   0  0  0  0  0  0  0  0  0  0  0  0
  -10.7644    2.1779    1.6976 O   0  0  0  0  0  0  0  0  0  0  0  0
  -10.7473    1.8659    0.3258 C   0  0  0  0  0  0  0  0  0  0  0  0
   -8.3647    2.4690    1.6877 C   0  0  0  0  0  0  0  0  0  0  0  0
   -5.3234    2.6909    0.6694 C   0  0  0  0  0  0  0  0  0  0  0  0
   -4.0857    3.1536    0.3134 C   0  0  0  0  0  0  0  0  0  0  0  0
   -3.5936    2.6153   -0.8923 C   0  0  0  0  0  0  0  0  0  0  0  0
   -2.3061    2.7733   -1.4337 C   0  0  0  0  0  0  0  0  0  0  0  0
   -1.3044    3.5687   -0.7417 C   0  0  0  0  0  0  0  0  0  0  0  0
   -0.4660    4.8690   -1.5329 S   0  0  0  0  0  0  0  0  0  0  0  0
    0.4285    5.2658   -0.1033 C   0  0  0  0  0  0  0  0  0  0  0  0
    1.3788    6.4116   -0.0850 C   0  0  0  0  0  0  0  0  0  0  0  0
    0.6419    7.7450   -0.2211 C   0  0  0  0  0  0  0  0  0  0  0  0
    0.0890    4.4271    0.9153 C   0  0  0  0  0  0  0  0  0  0  0  0
    0.7572    4.5011    2.4950 Cl  0  0  0  0  0  0  0  0  0  0  0  0
   -0.8872    3.4587    0.5558 C   0  0  0  0  0  0  0  0  0  0  0  0
   -1.4100    2.2355    1.6431 Cl  0  0  0  0  0  0  0  0  0  0  0  0
   -2.0255    2.0742   -2.5972 C   0  0  0  0  0  0  0  0  0  0  0  0
   -2.9653    1.2182   -3.2217 C   0  0  0  0  0  0  0  0  0  0  0  0
   -4.2442    1.0357   -2.6606 C   0  0  0  0  0  0  0  0  0  0  0  0
   -5.1695    0.0627   -3.2202 C   0  0  0  0  0  0  0  0  0  0  0  0
   -6.8029    0.4940   -3.6307 S   0  0  0  0  0  0  0  0  0  0  0  0
   -7.1726   -1.1049   -4.1808 C   0  0  0  0  0  0  0  0  0  0  0  0
   -8.5005   -1.4377   -4.7663 C   0  0  0  0  0  0  0  0  0  0  0  0
   -8.5065   -1.2003   -6.2785 C   0  0  0  0  0  0  0  0  0  0  0  0
   -6.0838   -1.9136   -4.0480 C   0  0  0  0  0  0  0  0  0  0  0  0
   -4.9497   -1.2590   -3.4974 C   0  0  0  0  0  0  0  0  0  0  0  0
   -3.4943   -2.1043   -3.1492 Cl  0  0  0  0  0  0  0  0  0  0  0  0
   -6.0628   -3.5696   -4.4922 Cl  0  0  0  0  0  0  0  0  0  0  0  0
   -4.5334    1.7546   -1.5121 C   0  0  0  0  0  0  0  0  0  0  0  0
   -5.9964    1.6366   -0.5668 S   0  0  0  0  0  0  0  0  0  0  0  0
   -2.4024    0.5420   -4.3287 C   0  0  0  0  0  0  0  0  0  0  0  0
   -1.0726    0.7950   -4.5021 C   0  0  0  0  0  0  0  0  0  0  0  0
   -0.4730    1.9990   -3.3802 S   0  0  0  0  0  0  0  0  0  0  0  0
   -0.1784    0.0211   -5.3029 C   0  0  0  0  0  0  0  0  0  0  0  0
   -0.4087   -1.2741   -5.6646 C   0  0  0  0  0  0  0  0  0  0  0  0
    0.7159   -1.9132   -6.2341 C   0  0  0  0  0  0  0  0  0  0  0  0
    0.8441   -3.2795   -6.5488 C   0  0  0  0  0  0  0  0  0  0  0  0
   -0.3196   -4.1437   -6.4676 C   0  0  0  0  0  0  0  0  0  0  0  0
   -0.3209   -5.6060   -5.5278 S   0  0  0  0  0  0  0  0  0  0  0  0
   -1.9931   -5.9059   -5.8548 C   0  0  0  0  0  0  0  0  0  0  0  0
   -2.7128   -7.0517   -5.2342 C   0  0  0  0  0  0  0  0  0  0  0  0
   -3.3407   -6.6352   -3.9013 C   0  0  0  0  0  0  0  0  0  0  0  0
   -2.5054   -4.9269   -6.6537 C   0  0  0  0  0  0  0  0  0  0  0  0
   -4.1338   -4.8853   -7.1901 Cl  0  0  0  0  0  0  0  0  0  0  0  0
   -1.5603   -3.9284   -7.0051 C   0  0  0  0  0  0  0  0  0  0  0  0
   -1.9431   -2.6285   -8.0593 Cl  0  0  0  0  0  0  0  0  0  0  0  0
    2.1179   -3.7311   -6.8617 C   0  0  0  0  0  0  0  0  0  0  0  0
    3.2275   -2.8553   -6.9599 C   0  0  0  0  0  0  0  0  0  0  0  0
    3.0930   -1.4849   -6.6765 C   0  0  0  0  0  0  0  0  0  0  0  0
    4.2523   -0.6069   -6.6953 C   0  0  0  0  0  0  0  0  0  0  0  0
    4.2690    0.8530   -7.6378 S   0  0  0  0  0  0  0  0  0  0  0  0
    5.8865    1.2369   -7.1593 C   0  0  0  0  0  0  0  0  0  0  0  0
    6.5986    2.4254   -7.7044 C   0  0  0  0  0  0  0  0  0  0  0  0
    7.3869    2.0563   -8.9639 C   0  0  0  0  0  0  0  0  0  0  0  0
    6.3704    0.2814   -6.3161 C   0  0  0  0  0  0  0  0  0  0  0  0
    5.4470   -0.7627   -6.0466 C   0  0  0  0  0  0  0  0  0  0  0  0
    5.8018   -2.0357   -4.9480 Cl  0  0  0  0  0  0  0  0  0  0  0  0
    7.9404    0.3208   -5.6305 Cl  0  0  0  0  0  0  0  0  0  0  0  0
    1.8318   -1.0446   -6.3053 C   0  0  0  0  0  0  0  0  0  0  0  0
    1.4405    0.5454   -5.7080 S   0  0  0  0  0  0  0  0  0  0  0  0
    4.4145   -3.5460   -7.2901 C   0  0  0  0  0  0  0  0  0  0  0  0
    4.2586   -4.8997   -7.3599 C   0  0  0  0  0  0  0  0  0  0  0  0
    2.5903   -5.3847   -7.1441 S   0  0  0  0  0  0  0  0  0  0  0  0
    5.3389   -5.8293   -7.4569 C   0  0  0  0  0  0  0  0  0  0  0  0
    6.6378   -5.5128   -7.1862 C   0  0  0  0  0  0  0  0  0  0  0  0
    7.5227   -6.6098   -7.2877 C   0  0  0  0  0  0  0  0  0  0  0  0
    8.9103   -6.6077   -7.0702 C   0  0  0  0  0  0  0  0  0  0  0  0
    9.5891   -5.3562   -6.7778 C   0  0  0  0  0  0  0  0  0  0  0  0
   10.5481   -5.1452   -5.3435 S   0  0  0  0  0  0  0  0  0  0  0  0
   10.8354   -3.4736   -5.6874 C   0  0  0  0  0  0  0  0  0  0  0  0
   11.5841   -2.6059   -4.7373 C   0  0  0  0  0  0  0  0  0  0  0  0
   10.6399   -2.0155   -3.6865 C   0  0  0  0  0  0  0  0  0  0  0  0
   10.2242   -3.1163   -6.8525 C   0  0  0  0  0  0  0  0  0  0  0  0
   10.2831   -1.5383   -7.5204 Cl  0  0  0  0  0  0  0  0  0  0  0  0
    9.5191   -4.1802   -7.4739 C   0  0  0  0  0  0  0  0  0  0  0  0
    8.7221   -3.9986   -8.9845 Cl  0  0  0  0  0  0  0  0  0  0  0  0
    9.5525   -7.8363   -7.1255 C   0  0  0  0  0  0  0  0  0  0  0  0
    8.8737   -9.0426   -7.4249 C   0  0  0  0  0  0  0  0  0  0  0  0
    7.4955   -9.0316   -7.6981 C   0  0  0  0  0  0  0  0  0  0  0  0
    6.7843  -10.2507   -8.0472 C   0  0  0  0  0  0  0  0  0  0  0  0
    5.3630  -10.7468   -7.1783 S   0  0  0  0  0  0  0  0  0  0  0  0
    5.1727  -12.1675   -8.1471 C   0  0  0  0  0  0  0  0  0  0  0  0
    4.0845  -13.1455   -7.8719 C   0  0  0  0  0  0  0  0  0  0  0  0
    4.4790  -14.1009   -6.7430 C   0  0  0  0  0  0  0  0  0  0  0  0
    6.1609  -12.2398   -9.0831 C   0  0  0  0  0  0  0  0  0  0  0  0
    7.0744  -11.1528   -9.0324 C   0  0  0  0  0  0  0  0  0  0  0  0
    8.3593  -10.9709  -10.1563 Cl  0  0  0  0  0  0  0  0  0  0  0  0
    6.3034  -13.5083  -10.2305 Cl  0  0  0  0  0  0  0  0  0  0  0  0
    6.8428   -7.8091   -7.6042 C   0  0  0  0  0  0  0  0  0  0  0  0
    5.1379   -7.5249   -7.8380 S   0  0  0  0  0  0  0  0  0  0  0  0
    9.7555  -10.1621   -7.3720 C   0  0  0  0  0  0  0  0  0  0  0  0
   11.0262   -9.8156   -7.0839 C   0  0  0  0  0  0  0  0  0  0  0  0
   11.2479   -8.1159   -6.8481 S   0  0  0  0  0  0  0  0  0  0  0  0
    4.2862    4.5505   12.0920 H   0  0  0  0  0  0  0  0  0  0  0  0
    3.4964    5.6499    9.8675 H   0  0  0  0  0  0  0  0  0  0  0  0
    2.5469    6.4759    3.9673 H   0  0  0  0  0  0  0  0  0  0  0  0
    3.0706    8.1064    4.4355 H   0  0  0  0  0  0  0  0  0  0  0  0
    0.6829    8.8659    4.3660 H   0  0  0  0  0  0  0  0  0  0  0  0
    0.1909    7.2439    3.8659 H   0  0  0  0  0  0  0  0  0  0  0  0
    1.2082    8.2265    2.8051 H   0  0  0  0  0  0  0  0  0  0  0  0
   -2.9544   -0.2801   15.1154 H   0  0  0  0  0  0  0  0  0  0  0  0
   -3.2959    1.4123   15.5072 H   0  0  0  0  0  0  0  0  0  0  0  0
   -4.8942    1.5528   13.6172 H   0  0  0  0  0  0  0  0  0  0  0  0
   -5.3533    0.2551   14.7252 H   0  0  0  0  0  0  0  0  0  0  0  0
   -4.5637   -0.1316   13.1931 H   0  0  0  0  0  0  0  0  0  0  0  0
   -2.9278    2.5441   10.1657 H   0  0  0  0  0  0  0  0  0  0  0  0
   -5.0094    2.6722   10.2223 H   0  0  0  0  0  0  0  0  0  0  0  0
   -8.1836    1.4443   11.0369 H   0  0  0  0  0  0  0  0  0  0  0  0
   -6.5114    1.5084   11.6267 H   0  0  0  0  0  0  0  0  0  0  0  0
   -7.1396    0.0508   10.8364 H   0  0  0  0  0  0  0  0  0  0  0  0
   -8.8186   -0.4477    6.7757 H   0  0  0  0  0  0  0  0  0  0  0  0
   -9.8582    0.9727    7.0680 H   0  0  0  0  0  0  0  0  0  0  0  0
  -10.1393   -0.5392    7.9677 H   0  0  0  0  0  0  0  0  0  0  0  0
   -7.7566    1.5562    6.2458 H   0  0  0  0  0  0  0  0  0  0  0  0
   -8.6668    3.3278    5.4697 H   0  0  0  0  0  0  0  0  0  0  0  0
  -11.5434    1.8524    4.2409 H   0  0  0  0  0  0  0  0  0  0  0  0
  -11.6904    3.5285    3.7492 H   0  0  0  0  0  0  0  0  0  0  0  0
  -11.0209    3.1407    5.3446 H   0  0  0  0  0  0  0  0  0  0  0  0
  -11.7822    1.6587    0.0583 H   0  0  0  0  0  0  0  0  0  0  0  0
  -10.1338    0.9824    0.1228 H   0  0  0  0  0  0  0  0  0  0  0  0
  -10.3786    2.7053   -0.2720 H   0  0  0  0  0  0  0  0  0  0  0  0
   -8.2624    2.2862    0.6309 H   0  0  0  0  0  0  0  0  0  0  0  0
   -3.5405    3.8517    0.9213 H   0  0  0  0  0  0  0  0  0  0  0  0
    2.0888    6.3080   -0.9087 H   0  0  0  0  0  0  0  0  0  0  0  0
    1.9312    6.3836    0.8556 H   0  0  0  0  0  0  0  0  0  0  0  0
    0.1057    7.7826   -1.1662 H   0  0  0  0  0  0  0  0  0  0  0  0
    1.3495    8.5694   -0.1892 H   0  0  0  0  0  0  0  0  0  0  0  0
   -0.0745    7.8660    0.5879 H   0  0  0  0  0  0  0  0  0  0  0  0
   -8.7214   -2.4875   -4.5623 H   0  0  0  0  0  0  0  0  0  0  0  0
   -9.2678   -0.8200   -4.2968 H   0  0  0  0  0  0  0  0  0  0  0  0
   -9.4795   -1.4513   -6.6920 H   0  0  0  0  0  0  0  0  0  0  0  0
   -8.2915   -0.1572   -6.4977 H   0  0  0  0  0  0  0  0  0  0  0  0
   -7.7536   -1.8191   -6.7599 H   0  0  0  0  0  0  0  0  0  0  0  0
   -2.9567   -0.1193   -4.9672 H   0  0  0  0  0  0  0  0  0  0  0  0
   -1.3281   -1.7818   -5.4430 H   0  0  0  0  0  0  0  0  0  0  0  0
   -3.4969   -7.3877   -5.9160 H   0  0  0  0  0  0  0  0  0  0  0  0
   -2.0140   -7.8731   -5.0695 H   0  0  0  0  0  0  0  0  0  0  0  0
   -2.5712   -6.3022   -3.2089 H   0  0  0  0  0  0  0  0  0  0  0  0
   -3.8706   -7.4744   -3.4587 H   0  0  0  0  0  0  0  0  0  0  0  0
   -4.0443   -5.8210   -4.0545 H   0  0  0  0  0  0  0  0  0  0  0  0
    7.2853    2.8048   -6.9446 H   0  0  0  0  0  0  0  0  0  0  0  0
    5.8728    3.2045   -7.9416 H   0  0  0  0  0  0  0  0  0  0  0  0
    6.7159    1.6814   -9.7331 H   0  0  0  0  0  0  0  0  0  0  0  0
    7.9063    2.9297   -9.3487 H   0  0  0  0  0  0  0  0  0  0  0  0
    8.1205    1.2866   -8.7378 H   0  0  0  0  0  0  0  0  0  0  0  0
    5.3518   -3.0550   -7.4681 H   0  0  0  0  0  0  0  0  0  0  0  0
    6.9481   -4.5348   -6.8725 H   0  0  0  0  0  0  0  0  0  0  0  0
   12.0583   -1.7971   -5.2967 H   0  0  0  0  0  0  0  0  0  0  0  0
   12.3595   -3.1931   -4.2427 H   0  0  0  0  0  0  0  0  0  0  0  0
    9.8677   -1.4195   -4.1657 H   0  0  0  0  0  0  0  0  0  0  0  0
   10.1620   -2.8104   -3.1189 H   0  0  0  0  0  0  0  0  0  0  0  0
   11.1940   -1.3802   -3.0008 H   0  0  0  0  0  0  0  0  0  0  0  0
    3.8870  -13.7150   -8.7818 H   0  0  0  0  0  0  0  0  0  0  0  0
    3.1777  -12.6072   -7.5908 H   0  0  0  0  0  0  0  0  0  0  0  0
    3.6747  -14.8064   -6.5528 H   0  0  0  0  0  0  0  0  0  0  0  0
    4.6787  -13.5437   -5.8309 H   0  0  0  0  0  0  0  0  0  0  0  0
    5.3730  -14.6566   -7.0145 H   0  0  0  0  0  0  0  0  0  0  0  0
    9.4368  -11.1754   -7.5311 H   0  0  0  0  0  0  0  0  0  0  0  0
   11.8778  -10.4601   -6.9858 H   0  0  0  0  0  0  0  0  0  0  0  0
  1  2  2  0  0  0  0
  2  3  1  0  0  0  0
  3  4  2  0  0  0  0
  4  5  1  0  0  0  0
  5  6  1  0  0  0  0
  6  7  1  0  0  0  0
  7  8  1  0  0  0  0
  8  9  1  0  0  0  0
  7 10  2  0  0  0  0
 10 11  1  0  0  0  0
 10 12  1  0  0  0  0
 12 13  1  0  0  0  0
  4 14  1  0  0  0  0
 14 15  2  0  0  0  0
 15 16  1  0  0  0  0
 16 17  1  0  0  0  0
 17 18  1  0  0  0  0
 18 19  1  0  0  0  0
 19 20  1  0  0  0  0
 20 21  1  0  0  0  0
 19 22  2  0  0  0  0
 22 23  1  0  0  0  0
 23 24  1  0  0  0  0
 22 25  1  0  0  0  0
 16 26  2  0  0  0  0
 26 27  1  0  0  0  0
 15 28  1  0  0  0  0
 28 29  2  0  0  0  0
 29 30  1  0  0  0  0
 29 31  1  0  0  0  0
 31 32  1  0  0  0  0
 32 33  1  0  0  0  0
 33 34  2  0  0  0  0
 34 35  1  0  0  0  0
 35 36  1  0  0  0  0
 36 37  2  0  0  0  0
 37 38  1  0  0  0  0
 37 39  1  0  0  0  0
 39 40  1  0  0  0  0
 40 41  1  0  0  0  0
 39 42  2  0  0  0  0
 33 43  1  0  0  0  0
 43 44  1  0  0  0  0
 44 45  1  0  0  0  0
 45 46  2  0  0  0  0
 46 47  1  0  0  0  0
 47 48  1  0  0  0  0
 48 49  2  0  0  0  0
 49 50  1  0  0  0  0
 49 51  1  0  0  0  0
 51 52  1  0  0  0  0
 52 53  1  0  0  0  0
 51 54  2  0  0  0  0
 45 55  1  0  0  0  0
 55 56  2  0  0  0  0
 56 57  1  0  0  0  0
 57 58  2  0  0  0  0
 58 59  1  0  0  0  0
 59 60  1  0  0  0  0
 60 61  1  0  0  0  0
 61 62  1  0  0  0  0
 62 63  1  0  0  0  0
 61 64  2  0  0  0  0
 64 65  1  0  0  0  0
 64 66  1  0  0  0  0
 66 67  1  0  0  0  0
 58 68  1  0  0  0  0
 68 69  2  0  0  0  0
 69 70  1  0  0  0  0
 70 71  1  0  0  0  0
 71 72  1  0  0  0  0
 72 73  1  0  0  0  0
 73 74  1  0  0  0  0
 74 75  1  0  0  0  0
 73 76  2  0  0  0  0
 76 77  1  0  0  0  0
 77 78  1  0  0  0  0
 76 79  1  0  0  0  0
 70 80  2  0  0  0  0
 80 81  1  0  0  0  0
 69 82  1  0  0  0  0
 82 83  2  0  0  0  0
 83 84  1  0  0  0  0
 83 85  1  0  0  0  0
 85 86  2  0  0  0  0
 86 87  1  0  0  0  0
 87 88  2  0  0  0  0
 88 89  1  0  0  0  0
 89 90  1  0  0  0  0
 90 91  1  0  0  0  0
 91 92  1  0  0  0  0
 92 93  1  0  0  0  0
 91 94  2  0  0  0  0
 94 95  1  0  0  0  0
 94 96  1  0  0  0  0
 96 97  1  0  0  0  0
 88 98  1  0  0  0  0
 98 99  2  0  0  0  0
 99100  1  0  0  0  0
100101  1  0  0  0  0
101102  1  0  0  0  0
102103  1  0  0  0  0
103104  1  0  0  0  0
104105  1  0  0  0  0
103106  2  0  0  0  0
106107  1  0  0  0  0
107108  1  0  0  0  0
106109  1  0  0  0  0
100110  2  0  0  0  0
110111  1  0  0  0  0
 99112  1  0  0  0  0
112113  2  0  0  0  0
113114  1  0  0  0  0
113115  1  0  0  0  0
115116  2  0  0  0  0
116117  1  0  0  0  0
117118  2  0  0  0  0
118119  1  0  0  0  0
119120  1  0  0  0  0
120121  1  0  0  0  0
121122  1  0  0  0  0
122123  1  0  0  0  0
121124  2  0  0  0  0
124125  1  0  0  0  0
124126  1  0  0  0  0
126127  1  0  0  0  0
118128  1  0  0  0  0
128129  2  0  0  0  0
129130  1  0  0  0  0
130131  1  0  0  0  0
131132  1  0  0  0  0
132133  1  0  0  0  0
133134  1  0  0  0  0
134135  1  0  0  0  0
133136  2  0  0  0  0
136137  1  0  0  0  0
137138  1  0  0  0  0
136139  1  0  0  0  0
130140  2  0  0  0  0
140141  1  0  0  0  0
129142  1  0  0  0  0
142143  2  0  0  0  0
143144  1  0  0  0  0
 27  1  1  0  0  0  0
 35 31  2  0  0  0  0
 47 43  2  0  0  0  0
 81 55  1  0  0  0  0
111 85  1  0  0  0  0
141115  1  0  0  0  0
 26  3  1  0  0  0  0
 42 34  1  0  0  0  0
 54 46  1  0  0  0  0
 80 57  1  0  0  0  0
110 87  1  0  0  0  0
140117  1  0  0  0  0
 12  5  2  0  0  0  0
 30 14  1  0  0  0  0
 66 59  2  0  0  0  0
 84 68  1  0  0  0  0
 96 89  2  0  0  0  0
114 98  1  0  0  0  0
126119  2  0  0  0  0
144128  1  0  0  0  0
 23 17  2  0  0  0  0
 77 71  2  0  0  0  0
107101  2  0  0  0  0
137131  2  0  0  0  0
  1145  1  0  0  0  0
  2146  1  0  0  0  0
  8147  1  0  0  0  0
  8148  1  0  0  0  0
  9149  1  0  0  0  0
  9150  1  0  0  0  0
  9151  1  0  0  0  0
 20152  1  0  0  0  0
 20153  1  0  0  0  0
 21154  1  0  0  0  0
 21155  1  0  0  0  0
 21156  1  0  0  0  0
 28157  1  0  0  0  0
 36158  1  0  0  0  0
 38159  1  0  0  0  0
 38160  1  0  0  0  0
 38161  1  0  0  0  0
 41162  1  0  0  0  0
 41163  1  0  0  0  0
 41164  1  0  0  0  0
 42165  1  0  0  0  0
 48166  1  0  0  0  0
 50167  1  0  0  0  0
 50168  1  0  0  0  0
 50169  1  0  0  0  0
 53170  1  0  0  0  0
 53171  1  0  0  0  0
 53172  1  0  0  0  0
 54173  1  0  0  0  0
 56174  1  0  0  0  0
 62175  1  0  0  0  0
 62176  1  0  0  0  0
 63177  1  0  0  0  0
 63178  1  0  0  0  0
 63179  1  0  0  0  0
 74180  1  0  0  0  0
 74181  1  0  0  0  0
 75182  1  0  0  0  0
 75183  1  0  0  0  0
 75184  1  0  0  0  0
 82185  1  0  0  0  0
 86186  1  0  0  0  0
 92187  1  0  0  0  0
 92188  1  0  0  0  0
 93189  1  0  0  0  0
 93190  1  0  0  0  0
 93191  1  0  0  0  0
104192  1  0  0  0  0
104193  1  0  0  0  0
105194  1  0  0  0  0
105195  1  0  0  0  0
105196  1  0  0  0  0
112197  1  0  0  0  0
116198  1  0  0  0  0
122199  1  0  0  0  0
122200  1  0  0  0  0
123201  1  0  0  0  0
123202  1  0  0  0  0
123203  1  0  0  0  0
134204  1  0  0  0  0
134205  1  0  0  0  0
135206  1  0  0  0  0
135207  1  0  0  0  0
135208  1  0  0  0  0
142209  1  0  0  0  0
143210  1  0  0  0  0
M  END
