
  xtb     03042203233D
 energy: -361.533372272768 gnorm: 0.000440048535 xtb: 6.4.1 (unknown)
212232  0     0  0            999 V2000
    5.7818  -11.7680   10.7434 C   0  0  0  0  0  0  0  0  0  0  0  0
    6.2790  -10.6599   10.1581 C   0  0  0  0  0  0  0  0  0  0  0  0
    5.4784  -10.2020    9.0701 C   0  0  0  0  0  0  0  0  0  0  0  0
    5.7072   -9.1099    8.2232 C   0  0  0  0  0  0  0  0  0  0  0  0
    6.8113   -8.1592    8.4071 C   0  0  0  0  0  0  0  0  0  0  0  0
    7.0189   -7.5205    9.6281 C   0  0  0  0  0  0  0  0  0  0  0  0
    7.9644   -6.5238    9.7451 C   0  0  0  0  0  0  0  0  0  0  0  0
    8.7482   -6.1357    8.6601 C   0  0  0  0  0  0  0  0  0  0  0  0
    9.9043   -4.8207    8.9097 S   0  0  0  0  0  0  0  0  0  0  0  0
    9.7877   -3.8391    7.3655 C   0  0  0  0  0  0  0  0  0  0  0  0
    8.3689   -3.4017    7.0626 C   0  0  0  0  0  0  0  0  0  0  0  0
    8.5781   -6.8313    7.4672 C   0  0  0  0  0  0  0  0  0  0  0  0
    9.3474   -6.5573    6.3900 F   0  0  0  0  0  0  0  0  0  0  0  0
    7.6190   -7.8129    7.3285 C   0  0  0  0  0  0  0  0  0  0  0  0
    4.7923   -8.9166    7.1991 C   0  0  0  0  0  0  0  0  0  0  0  0
    3.6621   -9.7425    6.9881 C   0  0  0  0  0  0  0  0  0  0  0  0
    3.4352  -10.8380    7.8361 C   0  0  0  0  0  0  0  0  0  0  0  0
    2.2891  -11.7322    7.6331 C   0  0  0  0  0  0  0  0  0  0  0  0
    2.0438  -12.3034    6.3851 C   0  0  0  0  0  0  0  0  0  0  0  0
    0.9625  -13.1365    6.1949 C   0  0  0  0  0  0  0  0  0  0  0  0
    0.0860  -13.4348    7.2361 C   0  0  0  0  0  0  0  0  0  0  0  0
   -1.2468  -14.5457    6.8881 S   0  0  0  0  0  0  0  0  0  0  0  0
   -2.6769  -13.7844    7.7423 C   0  0  0  0  0  0  0  0  0  0  0  0
   -2.9388  -12.3730    7.2566 C   0  0  0  0  0  0  0  0  0  0  0  0
    0.3597  -12.8807    8.4828 C   0  0  0  0  0  0  0  0  0  0  0  0
    1.4325  -12.0364    8.6854 C   0  0  0  0  0  0  0  0  0  0  0  0
   -0.4276  -13.1501    9.5471 F   0  0  0  0  0  0  0  0  0  0  0  0
    4.3508  -11.0335    8.8622 C   0  0  0  0  0  0  0  0  0  0  0  0
    4.3141  -12.3357   10.0239 S   0  0  0  0  0  0  0  0  0  0  0  0
    2.8524   -9.2676    5.9206 C   0  0  0  0  0  0  0  0  0  0  0  0
    3.3371   -8.1393    5.3322 C   0  0  0  0  0  0  0  0  0  0  0  0
    4.8356   -7.5952    6.0660 S   0  0  0  0  0  0  0  0  0  0  0  0
    2.8060   -7.3678    4.2583 C   0  0  0  0  0  0  0  0  0  0  0  0
    3.3696   -6.2413    3.7371 C   0  0  0  0  0  0  0  0  0  0  0  0
    2.6147   -5.6525    2.6965 C   0  0  0  0  0  0  0  0  0  0  0  0
    2.9140   -4.4799    1.9803 C   0  0  0  0  0  0  0  0  0  0  0  0
    4.1032   -3.6930    2.3305 C   0  0  0  0  0  0  0  0  0  0  0  0
    4.3341   -3.3226    3.6556 C   0  0  0  0  0  0  0  0  0  0  0  0
    5.4923   -2.6669    4.0116 C   0  0  0  0  0  0  0  0  0  0  0  0
    6.4581   -2.3451    3.0615 C   0  0  0  0  0  0  0  0  0  0  0  0
    7.9267   -1.5304    3.6249 S   0  0  0  0  0  0  0  0  0  0  0  0
    9.2619   -2.4143    2.7342 C   0  0  0  0  0  0  0  0  0  0  0  0
    9.2336   -3.9068    2.9951 C   0  0  0  0  0  0  0  0  0  0  0  0
    6.1833   -2.6565    1.7338 C   0  0  0  0  0  0  0  0  0  0  0  0
    7.0513   -2.3207    0.7551 F   0  0  0  0  0  0  0  0  0  0  0  0
    5.0353   -3.3302    1.3652 C   0  0  0  0  0  0  0  0  0  0  0  0
    2.0358   -4.1303    0.9705 C   0  0  0  0  0  0  0  0  0  0  0  0
    0.8600   -4.8704    0.6822 C   0  0  0  0  0  0  0  0  0  0  0  0
    0.5465   -6.0266    1.4206 C   0  0  0  0  0  0  0  0  0  0  0  0
   -0.6821   -6.7824    1.1504 C   0  0  0  0  0  0  0  0  0  0  0  0
   -1.9167   -6.1395    1.1018 C   0  0  0  0  0  0  0  0  0  0  0  0
   -3.0731   -6.8335    0.8061 C   0  0  0  0  0  0  0  0  0  0  0  0
   -3.0355   -8.1970    0.5371 C   0  0  0  0  0  0  0  0  0  0  0  0
   -4.4367   -9.1828    0.1213 S   0  0  0  0  0  0  0  0  0  0  0  0
   -5.6474   -7.9663   -0.5056 C   0  0  0  0  0  0  0  0  0  0  0  0
   -5.1890   -7.3049   -1.7915 C   0  0  0  0  0  0  0  0  0  0  0  0
   -1.7980   -8.8359    0.6283 C   0  0  0  0  0  0  0  0  0  0  0  0
   -0.6383   -8.1568    0.9287 C   0  0  0  0  0  0  0  0  0  0  0  0
   -1.7272  -10.1618    0.3982 F   0  0  0  0  0  0  0  0  0  0  0  0
    1.4494   -6.4015    2.4023 C   0  0  0  0  0  0  0  0  0  0  0  0
    1.3008   -7.7838    3.4628 S   0  0  0  0  0  0  0  0  0  0  0  0
    0.1245   -4.3031   -0.3834 C   0  0  0  0  0  0  0  0  0  0  0  0
    0.6754   -3.1597   -0.8971 C   0  0  0  0  0  0  0  0  0  0  0  0
    2.1671   -2.7331   -0.0639 S   0  0  0  0  0  0  0  0  0  0  0  0
    0.1783   -2.3040   -1.9113 C   0  0  0  0  0  0  0  0  0  0  0  0
    0.7480   -0.6692   -1.9780 S   0  0  0  0  0  0  0  0  0  0  0  0
   -0.3514   -0.2238   -3.2513 C   0  0  0  0  0  0  0  0  0  0  0  0
   -1.1033   -1.3517   -3.6443 C   0  0  0  0  0  0  0  0  0  0  0  0
   -0.7927   -2.5265   -2.8966 C   0  0  0  0  0  0  0  0  0  0  0  0
   -1.4273   -3.7396   -3.2352 C   0  0  0  0  0  0  0  0  0  0  0  0
   -2.3660   -3.7937   -4.2243 C   0  0  0  0  0  0  0  0  0  0  0  0
   -3.0549   -5.0671   -4.5964 C   0  0  0  0  0  0  0  0  0  0  0  0
   -2.6936   -2.6080   -4.9464 C   0  0  0  0  0  0  0  0  0  0  0  0
   -3.6430   -2.7691   -5.9070 O   0  0  0  0  0  0  0  0  0  0  0  0
   -4.0458   -1.6435   -6.6473 C   0  0  0  0  0  0  0  0  0  0  0  0
   -2.0567   -1.4235   -4.6752 C   0  0  0  0  0  0  0  0  0  0  0  0
   -0.4614    1.1154   -3.6672 C   0  0  0  0  0  0  0  0  0  0  0  0
   -1.8944    1.6800   -4.4791 S   0  0  0  0  0  0  0  0  0  0  0  0
   -1.3997    3.3494   -4.4589 C   0  0  0  0  0  0  0  0  0  0  0  0
   -0.1108    3.4488   -3.8922 C   0  0  0  0  0  0  0  0  0  0  0  0
    0.4110    2.2001   -3.4458 C   0  0  0  0  0  0  0  0  0  0  0  0
    1.7011    2.1649   -2.8831 C   0  0  0  0  0  0  0  0  0  0  0  0
    2.4400    3.3035   -2.7264 C   0  0  0  0  0  0  0  0  0  0  0  0
    3.8079    3.2825   -2.1264 C   0  0  0  0  0  0  0  0  0  0  0  0
    1.9074    4.5499   -3.1666 C   0  0  0  0  0  0  0  0  0  0  0  0
    2.7166    5.6230   -2.9704 O   0  0  0  0  0  0  0  0  0  0  0  0
    2.2687    6.8932   -3.3803 C   0  0  0  0  0  0  0  0  0  0  0  0
    0.6695    4.6100   -3.7569 C   0  0  0  0  0  0  0  0  0  0  0  0
   -2.2799    4.3655   -4.8677 C   0  0  0  0  0  0  0  0  0  0  0  0
   -1.9876    6.0150   -4.3964 S   0  0  0  0  0  0  0  0  0  0  0  0
   -3.4792    6.5944   -5.0747 C   0  0  0  0  0  0  0  0  0  0  0  0
   -4.1779    5.5407   -5.6724 C   0  0  0  0  0  0  0  0  0  0  0  0
   -3.5022    4.2871   -5.5681 C   0  0  0  0  0  0  0  0  0  0  0  0
   -4.0816    3.1621   -6.1851 C   0  0  0  0  0  0  0  0  0  0  0  0
   -5.2774    3.2483   -6.8404 C   0  0  0  0  0  0  0  0  0  0  0  0
   -5.8998    2.0649   -7.5092 C   0  0  0  0  0  0  0  0  0  0  0  0
   -5.9621    4.4991   -6.9030 C   0  0  0  0  0  0  0  0  0  0  0  0
   -7.1494    4.4696   -7.5643 O   0  0  0  0  0  0  0  0  0  0  0  0
   -7.8800    5.6663   -7.6826 C   0  0  0  0  0  0  0  0  0  0  0  0
   -5.4155    5.6212   -6.3377 C   0  0  0  0  0  0  0  0  0  0  0  0
   -3.7493    7.9760   -4.9517 C   0  0  0  0  0  0  0  0  0  0  0  0
   -2.8928    8.8946   -4.4019 C   0  0  0  0  0  0  0  0  0  0  0  0
   -3.3808   10.2185   -4.3961 C   0  0  0  0  0  0  0  0  0  0  0  0
   -2.7500   11.3649   -3.8833 C   0  0  0  0  0  0  0  0  0  0  0  0
   -1.3813   11.2674   -3.3635 C   0  0  0  0  0  0  0  0  0  0  0  0
   -0.3866   10.6553   -4.1275 C   0  0  0  0  0  0  0  0  0  0  0  0
    0.8801   10.4733   -3.6188 C   0  0  0  0  0  0  0  0  0  0  0  0
    1.2120   10.9009   -2.3347 C   0  0  0  0  0  0  0  0  0  0  0  0
    2.8715   10.6046   -1.7922 S   0  0  0  0  0  0  0  0  0  0  0  0
    2.6801   10.0985   -0.0426 C   0  0  0  0  0  0  0  0  0  0  0  0
    1.8285    8.8530    0.0996 C   0  0  0  0  0  0  0  0  0  0  0  0
    0.2297   11.5669   -1.6087 C   0  0  0  0  0  0  0  0  0  0  0  0
    0.4932   12.0564   -0.3774 F   0  0  0  0  0  0  0  0  0  0  0  0
   -1.0497   11.7411   -2.0996 C   0  0  0  0  0  0  0  0  0  0  0  0
   -3.4831   12.5416   -3.9128 C   0  0  0  0  0  0  0  0  0  0  0  0
   -4.7922   12.6247   -4.4481 C   0  0  0  0  0  0  0  0  0  0  0  0
   -5.4149   11.4809   -4.9736 C   0  0  0  0  0  0  0  0  0  0  0  0
   -6.7852   11.4970   -5.4994 C   0  0  0  0  0  0  0  0  0  0  0  0
   -7.8396   12.0199   -4.7526 C   0  0  0  0  0  0  0  0  0  0  0  0
   -9.1343   11.9456   -5.2202 C   0  0  0  0  0  0  0  0  0  0  0  0
   -9.4293   11.3623   -6.4509 C   0  0  0  0  0  0  0  0  0  0  0  0
  -11.1258   11.3260   -6.9525 S   0  0  0  0  0  0  0  0  0  0  0  0
  -11.3165    9.6747   -7.7217 C   0  0  0  0  0  0  0  0  0  0  0  0
  -10.9155    8.5569   -6.7800 C   0  0  0  0  0  0  0  0  0  0  0  0
   -8.3619   10.8864   -7.2052 C   0  0  0  0  0  0  0  0  0  0  0  0
   -7.0642   10.9328   -6.7396 C   0  0  0  0  0  0  0  0  0  0  0  0
   -8.5617   10.3508   -8.4310 F   0  0  0  0  0  0  0  0  0  0  0  0
   -4.6834   10.3054   -4.9419 C   0  0  0  0  0  0  0  0  0  0  0  0
   -5.2386    8.7403   -5.4865 S   0  0  0  0  0  0  0  0  0  0  0  0
   -5.2896   13.9608   -4.4110 C   0  0  0  0  0  0  0  0  0  0  0  0
   -4.4154   14.8329   -3.8692 C   0  0  0  0  0  0  0  0  0  0  0  0
   -2.9276   14.1033   -3.3676 S   0  0  0  0  0  0  0  0  0  0  0  0
    6.1857  -12.3112   11.5754 H   0  0  0  0  0  0  0  0  0  0  0  0
    7.1906  -10.1782   10.4621 H   0  0  0  0  0  0  0  0  0  0  0  0
    6.4010   -7.7759   10.4755 H   0  0  0  0  0  0  0  0  0  0  0  0
    8.1016   -6.0083   10.6830 H   0  0  0  0  0  0  0  0  0  0  0  0
   10.4260   -2.9804    7.5734 H   0  0  0  0  0  0  0  0  0  0  0  0
   10.2236   -4.4143    6.5511 H   0  0  0  0  0  0  0  0  0  0  0  0
    8.3685   -2.7261    6.2088 H   0  0  0  0  0  0  0  0  0  0  0  0
    7.7370   -4.2568    6.8270 H   0  0  0  0  0  0  0  0  0  0  0  0
    7.9408   -2.8811    7.9169 H   0  0  0  0  0  0  0  0  0  0  0  0
    7.5248   -8.3132    6.3774 H   0  0  0  0  0  0  0  0  0  0  0  0
    2.7154  -12.1012    5.5647 H   0  0  0  0  0  0  0  0  0  0  0  0
    0.7736  -13.5755    5.2276 H   0  0  0  0  0  0  0  0  0  0  0  0
   -3.5026  -14.4482    7.4861 H   0  0  0  0  0  0  0  0  0  0  0  0
   -2.5109  -13.8231    8.8166 H   0  0  0  0  0  0  0  0  0  0  0  0
   -3.8418  -11.9859    7.7247 H   0  0  0  0  0  0  0  0  0  0  0  0
   -2.1102  -11.7147    7.5120 H   0  0  0  0  0  0  0  0  0  0  0  0
   -3.0706  -12.3587    6.1767 H   0  0  0  0  0  0  0  0  0  0  0  0
    1.5849  -11.6188    9.6684 H   0  0  0  0  0  0  0  0  0  0  0  0
    1.9328   -9.7333    5.6139 H   0  0  0  0  0  0  0  0  0  0  0  0
    4.3096   -5.8529    4.0860 H   0  0  0  0  0  0  0  0  0  0  0  0
    3.5966   -3.5527    4.4092 H   0  0  0  0  0  0  0  0  0  0  0  0
    5.6763   -2.4003    5.0408 H   0  0  0  0  0  0  0  0  0  0  0  0
    9.1861   -2.1849    1.6734 H   0  0  0  0  0  0  0  0  0  0  0  0
   10.1701   -1.9610    3.1315 H   0  0  0  0  0  0  0  0  0  0  0  0
    8.3250   -4.3542    2.5960 H   0  0  0  0  0  0  0  0  0  0  0  0
   10.0876   -4.3769    2.5117 H   0  0  0  0  0  0  0  0  0  0  0  0
    9.2792   -4.1148    4.0617 H   0  0  0  0  0  0  0  0  0  0  0  0
    4.8886   -3.5776    0.3255 H   0  0  0  0  0  0  0  0  0  0  0  0
   -1.9759   -5.0839    1.3208 H   0  0  0  0  0  0  0  0  0  0  0  0
   -4.0108   -6.3016    0.7922 H   0  0  0  0  0  0  0  0  0  0  0  0
   -6.5413   -8.5664   -0.6749 H   0  0  0  0  0  0  0  0  0  0  0  0
   -5.8608   -7.2429    0.2804 H   0  0  0  0  0  0  0  0  0  0  0  0
   -4.2786   -6.7305   -1.6326 H   0  0  0  0  0  0  0  0  0  0  0  0
   -4.9931   -8.0576   -2.5515 H   0  0  0  0  0  0  0  0  0  0  0  0
   -5.9630   -6.6331   -2.1574 H   0  0  0  0  0  0  0  0  0  0  0  0
    0.2937   -8.6983    0.9598 H   0  0  0  0  0  0  0  0  0  0  0  0
   -0.8043   -4.7152   -0.7265 H   0  0  0  0  0  0  0  0  0  0  0  0
   -1.1450   -4.6472   -2.7274 H   0  0  0  0  0  0  0  0  0  0  0  0
   -4.1282   -4.9698   -4.4401 H   0  0  0  0  0  0  0  0  0  0  0  0
   -2.6808   -5.8989   -4.0057 H   0  0  0  0  0  0  0  0  0  0  0  0
   -2.9009   -5.2789   -5.6529 H   0  0  0  0  0  0  0  0  0  0  0  0
   -4.4424   -0.8586   -5.9947 H   0  0  0  0  0  0  0  0  0  0  0  0
   -3.2220   -1.2384   -7.2443 H   0  0  0  0  0  0  0  0  0  0  0  0
   -4.8331   -1.9948   -7.3128 H   0  0  0  0  0  0  0  0  0  0  0  0
   -2.2620   -0.5456   -5.2609 H   0  0  0  0  0  0  0  0  0  0  0  0
    2.1291    1.2223   -2.5833 H   0  0  0  0  0  0  0  0  0  0  0  0
    4.5333    3.6761   -2.8367 H   0  0  0  0  0  0  0  0  0  0  0  0
    3.8377    3.9235   -1.2469 H   0  0  0  0  0  0  0  0  0  0  0  0
    4.0919    2.2729   -1.8436 H   0  0  0  0  0  0  0  0  0  0  0  0
    1.3330    7.1704   -2.8836 H   0  0  0  0  0  0  0  0  0  0  0  0
    2.1261    6.9370   -4.4647 H   0  0  0  0  0  0  0  0  0  0  0  0
    3.0532    7.5919   -3.0924 H   0  0  0  0  0  0  0  0  0  0  0  0
    0.2982    5.5420   -4.1420 H   0  0  0  0  0  0  0  0  0  0  0  0
   -3.5666    2.2155   -6.1607 H   0  0  0  0  0  0  0  0  0  0  0  0
   -5.2513    1.1953   -7.4437 H   0  0  0  0  0  0  0  0  0  0  0  0
   -6.8571    1.8346   -7.0438 H   0  0  0  0  0  0  0  0  0  0  0  0
   -6.0964    2.2894   -8.5561 H   0  0  0  0  0  0  0  0  0  0  0  0
   -8.1604    6.0640   -6.7019 H   0  0  0  0  0  0  0  0  0  0  0  0
   -8.7797    5.4081   -8.2390 H   0  0  0  0  0  0  0  0  0  0  0  0
   -7.3196    6.4278   -8.2337 H   0  0  0  0  0  0  0  0  0  0  0  0
   -5.9100    6.5751   -6.3962 H   0  0  0  0  0  0  0  0  0  0  0  0
   -1.9388    8.6135   -3.9934 H   0  0  0  0  0  0  0  0  0  0  0  0
   -0.6136   10.3240   -5.1292 H   0  0  0  0  0  0  0  0  0  0  0  0
    1.6425    9.9870   -4.2075 H   0  0  0  0  0  0  0  0  0  0  0  0
    3.7050    9.9130    0.2783 H   0  0  0  0  0  0  0  0  0  0  0  0
    2.2780   10.9350    0.5242 H   0  0  0  0  0  0  0  0  0  0  0  0
    1.7704    8.5688    1.1484 H   0  0  0  0  0  0  0  0  0  0  0  0
    0.8176    9.0313   -0.2637 H   0  0  0  0  0  0  0  0  0  0  0  0
    2.2596    8.0272   -0.4620 H   0  0  0  0  0  0  0  0  0  0  0  0
   -1.7802   12.2374   -1.4800 H   0  0  0  0  0  0  0  0  0  0  0  0
   -7.6440   12.4503   -3.7823 H   0  0  0  0  0  0  0  0  0  0  0  0
   -9.9512   12.3311   -4.6302 H   0  0  0  0  0  0  0  0  0  0  0  0
  -12.3806    9.6307   -7.9537 H   0  0  0  0  0  0  0  0  0  0  0  0
  -10.7500    9.6483   -8.6499 H   0  0  0  0  0  0  0  0  0  0  0  0
   -9.8529    8.6058   -6.5484 H   0  0  0  0  0  0  0  0  0  0  0  0
  -11.4753    8.6227   -5.8494 H   0  0  0  0  0  0  0  0  0  0  0  0
  -11.1209    7.5950   -7.2456 H   0  0  0  0  0  0  0  0  0  0  0  0
   -6.2755   10.5474   -7.3668 H   0  0  0  0  0  0  0  0  0  0  0  0
   -6.2537   14.2425   -4.7939 H   0  0  0  0  0  0  0  0  0  0  0  0
   -4.5405   15.8881   -3.7244 H   0  0  0  0  0  0  0  0  0  0  0  0
  1  2  2  0  0  0  0
  2  3  1  0  0  0  0
  3  4  2  0  0  0  0
  4  5  1  0  0  0  0
  5  6  2  0  0  0  0
  6  7  1  0  0  0  0
  7  8  2  0  0  0  0
  8  9  1  0  0  0  0
  9 10  1  0  0  0  0
 10 11  1  0  0  0  0
  8 12  1  0  0  0  0
 12 13  1  0  0  0  0
 12 14  2  0  0  0  0
  4 15  1  0  0  0  0
 15 16  2  0  0  0  0
 16 17  1  0  0  0  0
 17 18  1  0  0  0  0
 18 19  2  0  0  0  0
 19 20  1  0  0  0  0
 20 21  2  0  0  0  0
 21 22  1  0  0  0  0
 22 23  1  0  0  0  0
 23 24  1  0  0  0  0
 21 25  1  0  0  0  0
 25 26  2  0  0  0  0
 25 27  1  0  0  0  0
 17 28  2  0  0  0  0
 28 29  1  0  0  0  0
 16 30  1  0  0  0  0
 30 31  2  0  0  0  0
 31 32  1  0  0  0  0
 31 33  1  0  0  0  0
 33 34  2  0  0  0  0
 34 35  1  0  0  0  0
 35 36  2  0  0  0  0
 36 37  1  0  0  0  0
 37 38  2  0  0  0  0
 38 39  1  0  0  0  0
 39 40  2  0  0  0  0
 40 41  1  0  0  0  0
 41 42  1  0  0  0  0
 42 43  1  0  0  0  0
 40 44  1  0  0  0  0
 44 45  1  0  0  0  0
 44 46  2  0  0  0  0
 36 47  1  0  0  0  0
 47 48  2  0  0  0  0
 48 49  1  0  0  0  0
 49 50  1  0  0  0  0
 50 51  2  0  0  0  0
 51 52  1  0  0  0  0
 52 53  2  0  0  0  0
 53 54  1  0  0  0  0
 54 55  1  0  0  0  0
 55 56  1  0  0  0  0
 53 57  1  0  0  0  0
 57 58  2  0  0  0  0
 57 59  1  0  0  0  0
 49 60  2  0  0  0  0
 60 61  1  0  0  0  0
 48 62  1  0  0  0  0
 62 63  2  0  0  0  0
 63 64  1  0  0  0  0
 63 65  1  0  0  0  0
 65 66  1  0  0  0  0
 66 67  1  0  0  0  0
 67 68  2  0  0  0  0
 68 69  1  0  0  0  0
 69 70  1  0  0  0  0
 70 71  2  0  0  0  0
 71 72  1  0  0  0  0
 71 73  1  0  0  0  0
 73 74  1  0  0  0  0
 74 75  1  0  0  0  0
 73 76  2  0  0  0  0
 67 77  1  0  0  0  0
 77 78  1  0  0  0  0
 78 79  1  0  0  0  0
 79 80  2  0  0  0  0
 80 81  1  0  0  0  0
 81 82  1  0  0  0  0
 82 83  2  0  0  0  0
 83 84  1  0  0  0  0
 83 85  1  0  0  0  0
 85 86  1  0  0  0  0
 86 87  1  0  0  0  0
 85 88  2  0  0  0  0
 79 89  1  0  0  0  0
 89 90  1  0  0  0  0
 90 91  1  0  0  0  0
 91 92  2  0  0  0  0
 92 93  1  0  0  0  0
 93 94  1  0  0  0  0
 94 95  2  0  0  0  0
 95 96  1  0  0  0  0
 95 97  1  0  0  0  0
 97 98  1  0  0  0  0
 98 99  1  0  0  0  0
 97100  2  0  0  0  0
 91101  1  0  0  0  0
101102  2  0  0  0  0
102103  1  0  0  0  0
103104  2  0  0  0  0
104105  1  0  0  0  0
105106  2  0  0  0  0
106107  1  0  0  0  0
107108  2  0  0  0  0
108109  1  0  0  0  0
109110  1  0  0  0  0
110111  1  0  0  0  0
108112  1  0  0  0  0
112113  1  0  0  0  0
112114  2  0  0  0  0
104115  1  0  0  0  0
115116  2  0  0  0  0
116117  1  0  0  0  0
117118  1  0  0  0  0
118119  2  0  0  0  0
119120  1  0  0  0  0
120121  2  0  0  0  0
121122  1  0  0  0  0
122123  1  0  0  0  0
123124  1  0  0  0  0
121125  1  0  0  0  0
125126  2  0  0  0  0
125127  1  0  0  0  0
117128  2  0  0  0  0
128129  1  0  0  0  0
116130  1  0  0  0  0
130131  2  0  0  0  0
131132  1  0  0  0  0
 29  1  1  0  0  0  0
 61 33  1  0  0  0  0
 69 65  2  0  0  0  0
 81 77  2  0  0  0  0
 93 89  2  0  0  0  0
129101  1  0  0  0  0
 28  3  1  0  0  0  0
 60 35  1  0  0  0  0
 76 68  1  0  0  0  0
 88 80  1  0  0  0  0
100 92  1  0  0  0  0
128103  1  0  0  0  0
 14  5  1  0  0  0  0
 32 15  1  0  0  0  0
 46 37  1  0  0  0  0
 64 47  1  0  0  0  0
114105  1  0  0  0  0
132115  1  0  0  0  0
 26 18  1  0  0  0  0
 58 50  1  0  0  0  0
126118  1  0  0  0  0
  1133  1  0  0  0  0
  2134  1  0  0  0  0
  6135  1  0  0  0  0
  7136  1  0  0  0  0
 10137  1  0  0  0  0
 10138  1  0  0  0  0
 11139  1  0  0  0  0
 11140  1  0  0  0  0
 11141  1  0  0  0  0
 14142  1  0  0  0  0
 19143  1  0  0  0  0
 20144  1  0  0  0  0
 23145  1  0  0  0  0
 23146  1  0  0  0  0
 24147  1  0  0  0  0
 24148  1  0  0  0  0
 24149  1  0  0  0  0
 26150  1  0  0  0  0
 30151  1  0  0  0  0
 34152  1  0  0  0  0
 38153  1  0  0  0  0
 39154  1  0  0  0  0
 42155  1  0  0  0  0
 42156  1  0  0  0  0
 43157  1  0  0  0  0
 43158  1  0  0  0  0
 43159  1  0  0  0  0
 46160  1  0  0  0  0
 51161  1  0  0  0  0
 52162  1  0  0  0  0
 55163  1  0  0  0  0
 55164  1  0  0  0  0
 56165  1  0  0  0  0
 56166  1  0  0  0  0
 56167  1  0  0  0  0
 58168  1  0  0  0  0
 62169  1  0  0  0  0
 70170  1  0  0  0  0
 72171  1  0  0  0  0
 72172  1  0  0  0  0
 72173  1  0  0  0  0
 75174  1  0  0  0  0
 75175  1  0  0  0  0
 75176  1  0  0  0  0
 76177  1  0  0  0  0
 82178  1  0  0  0  0
 84179  1  0  0  0  0
 84180  1  0  0  0  0
 84181  1  0  0  0  0
 87182  1  0  0  0  0
 87183  1  0  0  0  0
 87184  1  0  0  0  0
 88185  1  0  0  0  0
 94186  1  0  0  0  0
 96187  1  0  0  0  0
 96188  1  0  0  0  0
 96189  1  0  0  0  0
 99190  1  0  0  0  0
 99191  1  0  0  0  0
 99192  1  0  0  0  0
100193  1  0  0  0  0
102194  1  0  0  0  0
106195  1  0  0  0  0
107196  1  0  0  0  0
110197  1  0  0  0  0
110198  1  0  0  0  0
111199  1  0  0  0  0
111200  1  0  0  0  0
111201  1  0  0  0  0
114202  1  0  0  0  0
119203  1  0  0  0  0
120204  1  0  0  0  0
123205  1  0  0  0  0
123206  1  0  0  0  0
124207  1  0  0  0  0
124208  1  0  0  0  0
124209  1  0  0  0  0
126210  1  0  0  0  0
130211  1  0  0  0  0
131212  1  0  0  0  0
M  END
