212

C         -9.39800      -12.82120       -1.71830
C         -9.14530      -11.51630       -1.94190
C         -8.24750      -10.95260       -0.98710
C         -7.80250       -9.62620       -0.89460
C         -8.11730       -8.60350       -1.89910
C         -8.57510       -7.34550       -1.51680
C         -8.75720       -6.34030       -2.44480
C         -8.47300       -6.55190       -3.78930
S         -8.60480       -5.31650       -5.03990
C         -8.37420       -3.75800       -4.11090
C         -7.00880       -3.66860       -3.46020
C         -8.06370       -7.83140       -4.16590
F         -7.80700       -8.08670       -5.46530
C         -7.88490       -8.84580       -3.25120
C         -6.98290       -9.31990        0.18110
C         -6.56000      -10.27440        1.13710
C         -7.00510      -11.60430        1.04400
C         -6.60440      -12.60420        2.03900
C         -6.11310      -13.84910        1.65910
C         -5.71560      -14.78070        2.59890
C         -5.78810      -14.49870        3.95810
S         -5.32510      -15.58690        5.26350
C         -4.43230      -16.94230        4.42820
C         -3.06310      -16.51470        3.93400
C         -6.29770      -13.25170        4.32560
C         -6.70330      -12.31810        3.40060
F         -6.39360      -12.94190        5.63650
C         -7.84010      -11.90680       -0.02370
S         -8.56780      -13.46190       -0.34060
C         -5.64470       -9.72340        2.07040
C         -5.39220       -8.39490        1.87760
S         -6.27340       -7.76000        0.49370
C         -4.53120       -7.50990        2.58290
S         -4.04060       -6.05180        1.79330
C         -3.03400       -5.56020        3.11860
C         -3.09870       -6.49820        4.15530
C         -3.96000       -7.60110        3.85530
C         -4.16450       -8.59230        4.83970
C         -3.52140       -8.53520        6.04030
C         -3.72310       -9.57150        7.09710
C         -2.62710       -7.45100        6.31390
O         -2.03050       -7.50340        7.53100
C         -1.13380       -6.47860        7.88800
C         -2.43440       -6.45160        5.39660
C         -2.29860       -4.35650        2.97520
C         -2.35420       -3.51610        1.89400
C         -1.48150       -2.40930        1.97300
C         -1.29660       -1.38600        1.02800
C         -2.10980       -1.29500       -0.19100
C         -1.51430       -1.14320       -1.43960
C         -2.27370       -1.01460       -2.58660
C         -3.66200       -1.03630       -2.52410
S         -4.74020       -0.84100       -3.90320
C         -3.63990       -1.10930       -5.34400
C         -4.49780       -1.25420       -6.58670
C         -4.24650       -1.19550       -1.26660
F         -5.59330       -1.21940       -1.17270
C         -3.50160       -1.32610       -0.11710
C         -0.30860       -0.45750        1.31040
C          0.46690       -0.46920        2.49650
C          0.24650       -1.46590        3.46430
C          0.97390       -1.47710        4.73830
C          1.06690       -0.32590        5.51580
C          1.71920       -0.33320        6.73360
C          2.29820       -1.49790        7.22470
S          3.16980       -1.65300        8.74740
C          2.79920       -0.10480        9.64120
C          1.36960       -0.05960       10.14680
C          2.20310       -2.64280        6.43120
C          1.56120       -2.64790        5.21450
F          2.75960       -3.79110        6.87000
C         -0.70760       -2.42420        3.16000
S         -1.14470       -3.78160        4.16690
C          1.43430        0.56930        2.50620
C          1.38900        1.36720        1.40270
S          0.12790        0.87870        0.28160
C          2.22890        2.45230        1.02260
C          2.11410        3.17270       -0.12880
C          3.13530        4.13320       -0.31010
C          3.29800        5.01370       -1.39480
C          2.36760        4.94410       -2.52740
C          2.07900        3.71510       -3.11870
C          1.11870        3.60530       -4.10260
C          0.40570        4.72060       -4.52740
S         -0.89300        4.65840       -5.72150
C         -1.61400        2.99710       -5.45340
C         -2.16840        2.82710       -4.05200
C          0.75640        5.95530       -3.98230
F          0.11850        7.06490       -4.40150
C          1.71650        6.07960       -3.00040
C          4.35600        5.90130       -1.31760
C          5.25640        5.93430       -0.22140
C          5.09220        5.05030        0.86120
C          6.00840        5.07870        2.00770
C          6.63600        3.91900        2.45840
C          7.52840        3.96660        3.50810
C          7.81610        5.16290        4.16130
S          8.96730        5.10730        5.50440
C          9.97290        6.62160        5.27520
C         10.60190        6.68750        3.89800
C          7.14250        6.30350        3.73490
C          6.26810        6.27590        2.66810
F          7.32620        7.48940        4.35790
C          4.03720        4.15550        0.78090
S          3.60650        2.95910        1.98250
C          6.29390        6.87610       -0.41730
C          6.21970        7.54970       -1.60570
S          4.81240        7.05540       -2.54100
C          7.07830        8.55220       -2.12760
S          6.47220        9.63210       -3.33830
C          7.95360       10.53120       -3.43220
C          8.90440        9.97710       -2.55740
C          8.41070        8.85250       -1.82700
C          9.28630        8.15890       -0.96450
C         10.57370        8.57100       -0.78650
C         11.51800        7.85500        0.12470
C         11.05400        9.70930       -1.50330
O         12.35430       10.02670       -1.25590
C         12.91460       11.12990       -1.92370
C         10.24290       10.38060       -2.37960
C          8.04440       11.67820       -4.25910
S          9.23180       12.91610       -3.94880
C          8.66120       13.90920       -5.21330
C          7.59980       13.33900       -5.87690
C          7.23640       12.06120       -5.33900
C          6.18250       11.35540       -5.95760
C          5.50610       11.88550       -7.01640
C          4.38730       11.15180       -7.68170
C          5.86060       13.17860       -7.52460
O          5.10170       13.59550       -8.57520
C          5.37460       14.85290       -9.13900
C          6.89070       13.88530       -6.97340
H        -10.03330      -13.47680       -2.28110
H         -9.58740      -10.95000       -2.74140
H         -8.80290       -7.15210       -0.47990
H         -9.11960       -5.38110       -2.11220
H         -8.49240       -2.99020       -4.87540
H         -9.18400       -3.65460       -3.39010
H         -6.87120       -4.45850       -2.72440
H         -6.90280       -2.70770       -2.96220
H         -6.22760       -3.75900       -4.21140
H         -7.52420       -9.80400       -3.59170
H         -6.02100      -14.08960        0.61120
H         -5.34740      -15.73410        2.25730
H         -5.06180      -17.33500        3.63080
H         -4.34270      -17.70280        5.20410
H         -2.55510      -17.36010        3.47390
H         -3.14250      -15.71530        3.20050
H         -2.46020      -16.15690        4.76530
H         -7.11510      -11.38170        3.74350
H         -5.14410      -10.31830        2.81020
H         -4.85720       -9.39550        4.65050
H         -4.42190      -10.33560        6.76820
H         -2.77140      -10.03810        7.34630
H         -4.10120       -9.10760        8.00670
H         -0.77580       -6.73450        8.88370
H         -0.28480       -6.42780        7.19960
H         -1.63060       -5.50380        7.92020
H         -1.78430       -5.62120        5.60930
H         -2.99250       -3.70630        1.04950
H         -0.43850       -1.13810       -1.52060
H         -1.77350       -0.89340       -3.53370
H         -2.97140       -0.25220       -5.43340
H         -3.06570       -2.01620       -5.15550
H         -5.17300       -2.10070       -6.48780
H         -3.86440       -1.41300       -7.45680
H         -5.09180       -0.35730       -6.74620
H         -4.00750       -1.42750        0.83020
H          0.60170        0.58640        5.17390
H          1.77220        0.58380        7.29740
H          3.50340       -0.11740       10.47310
H          3.04280        0.73810        8.99590
H          0.66050       -0.11170        9.32340
H          1.18170       -0.89820       10.81310
H          1.19970        0.86540       10.69460
H          1.53910       -3.55970        4.63940
H          2.16030        0.70440        3.28810
H          1.30630        3.02060       -0.82170
H          2.62290        2.83530       -2.80940
H          0.92070        2.63920       -4.53900
H         -2.41030        2.95100       -6.19650
H         -0.86600        2.24300       -5.69760
H         -2.67690        1.86930       -3.96030
H         -1.37420        2.86520       -3.30890
H         -2.88330        3.61680       -3.83350
H          1.92120        7.05430       -2.58660
H          6.44650        2.98070        1.96090
H          8.02910        3.07070        3.84040
H         10.73350        6.53300        6.05090
H          9.35490        7.49260        5.48240
H          9.83950        6.79300        3.12830
H         11.26690        7.54680        3.84020
H         11.17640        5.78570        3.69600
H          5.76840        7.18860        2.38140
H          7.05510        7.06030        0.31590
H          8.94200        7.27050       -0.46060
H         11.84480        8.52300        0.92020
H         11.04710        6.97960        0.56360
H         12.40650        7.54860       -0.42450
H         13.93630       11.20900       -1.55530
H         12.37330       12.05400       -1.69720
H         12.93140       10.97760       -3.00770
H         10.62140       11.20600       -2.95570
H          9.13570       14.85110       -5.40190
H          5.90870       10.37550       -5.60120
H          4.21460       10.19190       -7.20320
H          4.61670       10.99420       -8.73450
H          3.47490       11.74430       -7.63620
H          4.65050       14.98100       -9.94210
H          6.38710       14.89620       -9.55410
H          5.24960       15.65720       -8.40660
H          7.19360       14.85170       -7.34270
