242

C          1.71750       -0.74630       12.52300
S          0.16490       -0.61650       11.83220
C          0.78360       -0.78660       10.21280
C          2.17110       -0.93890       10.23770
C          2.69720       -0.91260       11.57210
C          4.09230       -1.04930       11.77810
C          4.93530       -1.20110       10.72280
C          6.41300       -1.34660       10.89330
C          4.40450       -1.22270        9.38840
O          5.34120       -1.37510        8.41760
C          4.92140       -1.41930        7.07500
C          3.06140       -1.09540        9.15500
C         -0.13490       -0.74770        9.12930
C         -1.47620       -0.48870        9.20860
C         -2.15200       -0.51580        7.96460
C         -3.51240       -0.26500        7.70880
C         -4.45380        0.00870        8.80040
C         -4.53250       -0.83980        9.90140
C         -5.41580       -0.59270       10.93390
C         -6.24540        0.52270       10.90910
S         -7.41700        0.95220       12.15310
C         -6.90330       -0.03000       13.60440
C         -5.58450        0.44530       14.18400
C         -6.16660        1.35630        9.79220
F         -6.96130        2.44310        9.73040
C         -5.29800        1.11610        8.75180
C         -3.91220       -0.29500        6.38010
C         -3.02730       -0.61170        5.32180
C         -1.66580       -0.85660        5.57120
C         -0.73550       -1.10770        4.46300
C          0.44450       -0.37440        4.33940
C          1.26340       -0.53370        3.24230
C          0.94430       -1.43020        2.22340
S          2.04100       -1.52320        0.83930
C          0.93010       -1.89470       -0.57600
C          1.58050       -1.39580       -1.85090
C         -0.20020       -2.20360        2.39130
C         -1.03380       -2.04670        3.47990
F         -0.54290       -3.13990        1.47650
C         -1.26440       -0.78700        6.89340
S          0.35990       -1.04240        7.47020
C         -3.68070       -0.57630        4.06750
C         -5.00330       -0.25780        4.13920
S         -5.52680        0.02280        5.78150
C         -5.79610       -0.11410        2.94860
C         -5.65580       -0.92210        1.86210
C         -6.20260       -0.37850        0.67420
C         -6.03640       -0.85450       -0.63390
C         -5.28950       -2.07800       -0.95810
C         -3.99220       -2.27020       -0.48550
C         -3.24320       -3.34840       -0.90590
C         -3.76090       -4.27920       -1.80350
S         -2.70870       -5.60860       -2.31160
C         -3.00270       -5.69690       -4.11840
C         -2.70310       -4.38270       -4.81080
C         -5.07590       -4.10530       -2.22430
F         -5.66260       -5.00230       -3.04460
C         -5.82700       -3.01540       -1.83220
C         -6.42790       -0.00500       -1.65220
C         -6.96250        1.28980       -1.43740
C         -7.21910        1.72170       -0.12370
C         -7.77170        3.05160        0.17100
C         -8.90740        3.17670        0.96850
C         -9.43080        4.41940        1.25530
C         -8.84720        5.58280        0.75890
S         -9.63340        7.12260        1.13950
C         -8.23300        8.22510        1.56130
C         -7.41120        7.68010        2.71180
C         -7.71850        5.44200       -0.04180
C         -7.17220        4.20580       -0.32200
F         -7.11170        6.52300       -0.58320
C         -6.82320        0.87370        0.90200
S         -6.75670        1.31080        2.59530
C         -6.95740        2.06490       -2.62650
C         -6.35510        1.44150       -3.68820
S         -6.02400       -0.25480       -3.32800
C         -5.64910        2.01520       -4.78280
S         -4.51590        0.98180       -5.60270
C         -3.47990        2.30990       -6.02840
C         -4.08130        3.52020       -5.69270
C         -5.33950        3.36090       -5.02730
C         -6.04920        4.51890       -4.64960
C         -5.53300        5.76310       -4.86890
C         -6.26590        7.00210       -4.47150
C         -4.25330        5.90690       -5.49740
O         -3.84280        7.19140       -5.64910
C         -2.59600        7.43030       -6.25490
C         -3.55060        4.80730       -5.91280
C         -2.10350        1.99010       -6.23870
C         -1.57310        0.90650       -6.87130
C         -0.23290        0.61870       -6.49990
C          0.56480       -0.47070       -6.88760
C          0.10670       -1.47440       -7.85770
C          0.90190       -1.81720       -8.94950
C          0.47830       -2.76380       -9.85680
C         -0.73980       -3.42390       -9.70220
S         -1.14600       -4.65490      -10.90460
C         -2.95540       -4.49300      -11.13380
C         -3.35210       -3.09570      -11.56540
C         -1.50160       -3.10110       -8.58360
F         -2.66740       -3.73940       -8.32980
C         -1.10480       -2.13420       -7.68210
C          1.79030       -0.61050       -6.25040
C          2.22370        0.26580       -5.22870
C          1.45140        1.38330       -4.87410
C          1.87340        2.17900       -3.71130
C          1.07380        2.21130       -2.57080
C          1.55330        2.75310       -1.39530
C          2.83520        3.28240       -1.32880
S          3.51040        3.84390        0.21690
C          3.50270        2.24250        1.11060
C          4.42520        1.22960        0.46250
C          3.59020        3.32650       -2.49520
C          3.13040        2.77220       -3.67400
F          4.81900        3.87130       -2.48130
C          0.24780        1.54080       -5.53370
S         -0.91490        2.79990       -5.21210
C          3.37950       -0.21760       -4.56950
C          3.83840       -1.39990       -5.06240
S          2.88470       -1.96480       -6.42280
C          4.89060       -2.18030       -4.49150
C          5.63050       -3.18690       -5.02810
C          6.54640       -3.76920       -4.10870
C          7.48970       -4.78190       -4.34050
C          7.61050       -5.43240       -5.65070
C          6.49450       -5.96670       -6.29380
C          6.61720       -6.56760       -7.52760
C          7.85130       -6.66820       -8.16880
S          7.87790       -7.49720       -9.73010
C          9.11420       -6.57710      -10.71930
C          8.76000       -5.10960      -10.85100
C          8.96060       -6.16080       -7.49940
F         10.19810       -6.25190       -8.03460
C          8.85030       -5.54230       -6.27040
C          8.29430       -5.14220       -3.26700
C          8.17880       -4.56620       -1.97830
C          7.24110       -3.55050       -1.74630
C          7.06500       -2.92140       -0.43020
C          5.79930       -2.83820        0.14900
C          5.62330       -2.22720        1.37000
C          6.69570       -1.67410        2.06950
S          6.30730       -0.95890        3.63970
C          7.53550        0.37440        3.90330
C          7.45360        1.44930        2.83910
C          7.95690       -1.79090        1.49460
C          8.14540       -2.38960        0.26380
F          9.06000       -1.32130        2.12200
C          6.45820       -3.17330       -2.82700
S          5.28110       -1.89080       -2.80260
C          9.06590       -5.18190       -1.04580
C          9.81750       -6.15390       -1.60040
S          9.50620       -6.39780       -3.28450
H          1.83260       -0.69270       13.58710
H          4.47270       -1.02910       12.78840
H          6.92930       -0.54540       10.36690
H          6.74740       -2.28670       10.45770
H          6.68620       -1.31990       11.94450
H          5.82380       -1.56190        6.48340
H          4.43640       -0.48590        6.77360
H          4.23700       -2.25320        6.89340
H          2.67240       -1.11090        8.15230
H         -1.96120       -0.25870       10.14030
H         -3.91110       -1.72180        9.93880
H         -5.45780       -1.28590       11.75830
H         -7.71640        0.12380       14.31390
H         -6.88200       -1.08310       13.32680
H         -4.77820        0.34000       13.46120
H         -5.65600        1.49280       14.46690
H         -5.33690       -0.13850       15.06850
H         -5.26870        1.80710        7.92440
H          0.70150        0.35450        5.09190
H          2.16590        0.05000        3.14580
H         -0.01320       -1.38260       -0.38980
H          0.76700       -2.97090       -0.61260
H          0.93900       -1.61390       -2.70250
H          2.54140       -1.88090       -2.00590
H          1.74310       -0.32070       -1.80580
H         -1.90170       -2.68290        3.56220
H         -3.17640       -0.72750        3.13100
H         -5.14550       -1.86700        1.90070
H         -3.55250       -1.53990        0.17700
H         -2.23280       -3.48460       -0.55330
H         -2.31750       -6.47870       -4.44580
H         -4.02440       -6.02540       -4.29450
H         -2.84180       -4.50070       -5.88290
H         -3.37250       -3.59720       -4.46250
H         -1.67660       -4.07460       -4.61960
H         -6.83550       -2.91640       -2.20300
H         -9.38340        2.29070        1.35990
H        -10.31010        4.51260        1.87310
H         -7.63070        8.38990        0.67060
H         -8.72420        9.15870        1.83530
H         -8.04140        7.50040        3.58020
H         -6.92920        6.74370        2.43600
H         -6.63900        8.39760        2.98230
H         -6.27120        4.16030       -0.91460
H         -7.29020        3.08350       -2.64970
H         -7.02990        4.42430       -4.21170
H         -6.40670        7.64890       -5.33570
H         -7.23300        6.76170       -4.03910
H         -5.68040        7.56000       -3.74230
H         -2.46930        8.51160       -6.25290
H         -2.57540        7.06510       -7.28670
H         -1.78100        6.96710       -5.68990
H         -2.59980        4.88900       -6.41370
H         -2.14220        0.31000       -7.56090
H          1.84710       -1.31820       -9.09840
H          1.08870       -3.01470      -10.71000
H         -3.17060       -5.22140      -11.91570
H         -3.45940       -4.79680      -10.21900
H         -4.42020       -3.06620      -11.77120
H         -3.13390       -2.37050      -10.78360
H         -2.81360       -2.80620      -12.46550
H         -1.73020       -1.93630       -6.82500
H          0.08680        1.77490       -2.59930
H          0.94060        2.74750       -0.50650
H          3.83770        2.50100        2.11470
H          2.47750        1.87740        1.15800
H          4.49300        0.33760        1.08090
H          4.04820        0.93200       -0.51410
H          5.42070        1.64840        0.33460
H          3.76280        2.78760       -4.54820
H          3.84040        0.27640       -3.73320
H          5.53990       -3.49060       -6.05560
H          5.52900       -5.92220       -5.81360
H          5.75090       -6.97690       -8.02390
H          9.07780       -7.07810      -11.68680
H         10.09950       -6.72230      -10.28230
H          9.47000       -4.62040      -11.51480
H          8.79680       -4.61230       -9.88350
H          7.75910       -4.99350      -11.26160
H          9.74220       -5.14660       -5.81030
H          4.94690       -3.26540       -0.35490
H          4.63950       -2.16940        1.80910
H          8.52780       -0.06560        3.96540
H          7.26140        0.76900        4.88220
H          8.15810        2.24570        3.06990
H          7.70240        1.04600        1.85980
H          6.45170        1.87010        2.79700
H          9.14310       -2.42380       -0.14650
H          9.11380       -4.90890       -0.00750
H         10.55850       -6.76620       -1.12470
