
  xtb     03032207443D
 energy: -352.965651394446 gnorm: 0.000618913819 xtb: 6.4.1 (unknown)
188208  0     0  0            999 V2000
    4.9636  -15.2190    6.1828 C   0  0  0  0  0  0  0  0  0  0  0  0
    3.8974  -14.8225    6.9074 C   0  0  0  0  0  0  0  0  0  0  0  0
    3.1986  -13.7329    6.3118 C   0  0  0  0  0  0  0  0  0  0  0  0
    2.0823  -13.0394    6.8082 C   0  0  0  0  0  0  0  0  0  0  0  0
    1.3978  -13.4635    8.0181 C   0  0  0  0  0  0  0  0  0  0  0  0
    1.0862  -12.3525    9.3179 S   0  0  0  0  0  0  0  0  0  0  0  0
    0.2795  -13.5600   10.2606 C   0  0  0  0  0  0  0  0  0  0  0  0
   -0.3250  -13.2222   11.5785 C   0  0  0  0  0  0  0  0  0  0  0  0
   -1.6009  -12.3970   11.3973 C   0  0  0  0  0  0  0  0  0  0  0  0
    0.2546  -14.7457    9.5897 C   0  0  0  0  0  0  0  0  0  0  0  0
   -0.4688  -16.1788   10.1981 Cl  0  0  0  0  0  0  0  0  0  0  0  0
    0.8919  -14.6968    8.3203 C   0  0  0  0  0  0  0  0  0  0  0  0
    0.9347  -16.0424    7.2551 Cl  0  0  0  0  0  0  0  0  0  0  0  0
    1.6621  -11.9286    6.0912 C   0  0  0  0  0  0  0  0  0  0  0  0
    2.2751  -11.5112    4.8861 C   0  0  0  0  0  0  0  0  0  0  0  0
    3.3637  -12.2317    4.3631 C   0  0  0  0  0  0  0  0  0  0  0  0
    3.9944  -11.8257    3.1188 C   0  0  0  0  0  0  0  0  0  0  0  0
    4.5416  -10.1908    2.8812 S   0  0  0  0  0  0  0  0  0  0  0  0
    5.0844  -10.5188    1.2711 C   0  0  0  0  0  0  0  0  0  0  0  0
    5.6377   -9.4323    0.4174 C   0  0  0  0  0  0  0  0  0  0  0  0
    4.5280   -8.4883   -0.0516 C   0  0  0  0  0  0  0  0  0  0  0  0
    4.8523  -11.8232    0.9528 C   0  0  0  0  0  0  0  0  0  0  0  0
    4.2415  -12.5685    1.9981 C   0  0  0  0  0  0  0  0  0  0  0  0
    3.7836  -14.2087    1.8080 Cl  0  0  0  0  0  0  0  0  0  0  0  0
    5.2461  -12.5260   -0.5624 Cl  0  0  0  0  0  0  0  0  0  0  0  0
    3.8058  -13.3242    5.0998 C   0  0  0  0  0  0  0  0  0  0  0  0
    5.1953  -14.3060    4.7332 S   0  0  0  0  0  0  0  0  0  0  0  0
    1.6388  -10.3752    4.3398 C   0  0  0  0  0  0  0  0  0  0  0  0
    0.5868   -9.9088    5.0814 C   0  0  0  0  0  0  0  0  0  0  0  0
    0.3192  -10.8991    6.5053 S   0  0  0  0  0  0  0  0  0  0  0  0
   -0.1710   -8.7481    4.7756 C   0  0  0  0  0  0  0  0  0  0  0  0
    0.3653   -7.7638    3.4544 S   0  0  0  0  0  0  0  0  0  0  0  0
   -0.9143   -6.6182    3.6666 C   0  0  0  0  0  0  0  0  0  0  0  0
   -1.7294   -6.9786    4.7453 C   0  0  0  0  0  0  0  0  0  0  0  0
   -1.3084   -8.1944    5.3708 C   0  0  0  0  0  0  0  0  0  0  0  0
   -2.0419   -8.6862    6.4713 C   0  0  0  0  0  0  0  0  0  0  0  0
   -3.1220   -8.0083    6.9527 C   0  0  0  0  0  0  0  0  0  0  0  0
   -3.9153   -8.5077    8.1160 C   0  0  0  0  0  0  0  0  0  0  0  0
   -3.5114   -6.7705    6.3480 C   0  0  0  0  0  0  0  0  0  0  0  0
   -4.5825   -6.1727    6.9289 O   0  0  0  0  0  0  0  0  0  0  0  0
   -5.0518   -4.9592    6.3921 C   0  0  0  0  0  0  0  0  0  0  0  0
   -2.8277   -6.2690    5.2714 C   0  0  0  0  0  0  0  0  0  0  0  0
   -0.9719   -5.4966    2.7971 C   0  0  0  0  0  0  0  0  0  0  0  0
   -2.0226   -4.6814    2.4800 C   0  0  0  0  0  0  0  0  0  0  0  0
   -1.6802   -3.6283    1.6006 C   0  0  0  0  0  0  0  0  0  0  0  0
   -2.4986   -2.5777    1.1518 C   0  0  0  0  0  0  0  0  0  0  0  0
   -3.8672   -2.4346    1.6190 C   0  0  0  0  0  0  0  0  0  0  0  0
   -5.1932   -2.2630    0.5092 S   0  0  0  0  0  0  0  0  0  0  0  0
   -6.3536   -2.1514    1.7893 C   0  0  0  0  0  0  0  0  0  0  0  0
   -7.7961   -1.9320    1.4936 C   0  0  0  0  0  0  0  0  0  0  0  0
   -8.0420   -0.5073    0.9926 C   0  0  0  0  0  0  0  0  0  0  0  0
   -5.7333   -2.2373    2.9998 C   0  0  0  0  0  0  0  0  0  0  0  0
   -6.5490   -2.1662    4.5111 Cl  0  0  0  0  0  0  0  0  0  0  0  0
   -4.3252   -2.3991    2.9065 C   0  0  0  0  0  0  0  0  0  0  0  0
   -3.3068   -2.4409    4.2888 Cl  0  0  0  0  0  0  0  0  0  0  0  0
   -1.9286   -1.6627    0.2781 C   0  0  0  0  0  0  0  0  0  0  0  0
   -0.5825   -1.7395   -0.1546 C   0  0  0  0  0  0  0  0  0  0  0  0
    0.2388   -2.7910    0.2950 C   0  0  0  0  0  0  0  0  0  0  0  0
    1.6262   -2.9040   -0.1238 C   0  0  0  0  0  0  0  0  0  0  0  0
    2.7258   -1.5632    0.0249 S   0  0  0  0  0  0  0  0  0  0  0  0
    4.0517   -2.4725   -0.6148 C   0  0  0  0  0  0  0  0  0  0  0  0
    5.4109   -1.8771   -0.7323 C   0  0  0  0  0  0  0  0  0  0  0  0
    6.1324   -1.8842    0.6174 C   0  0  0  0  0  0  0  0  0  0  0  0
    3.6515   -3.7400   -0.9125 C   0  0  0  0  0  0  0  0  0  0  0  0
    2.2794   -3.9894   -0.6403 C   0  0  0  0  0  0  0  0  0  0  0  0
    1.5349   -5.4850   -1.0217 Cl  0  0  0  0  0  0  0  0  0  0  0  0
    4.6862   -4.9356   -1.5746 Cl  0  0  0  0  0  0  0  0  0  0  0  0
   -0.3293   -3.7009    1.1760 C   0  0  0  0  0  0  0  0  0  0  0  0
    0.4941   -5.0197    1.9514 S   0  0  0  0  0  0  0  0  0  0  0  0
   -0.2474   -0.6685   -1.0176 C   0  0  0  0  0  0  0  0  0  0  0  0
   -1.2698    0.2116   -1.2177 C   0  0  0  0  0  0  0  0  0  0  0  0
   -2.7283   -0.2585   -0.3675 S   0  0  0  0  0  0  0  0  0  0  0  0
   -1.2544    1.4108   -1.9837 C   0  0  0  0  0  0  0  0  0  0  0  0
   -2.2826    2.2874   -2.1709 C   0  0  0  0  0  0  0  0  0  0  0  0
   -1.9377    3.4017   -2.9698 C   0  0  0  0  0  0  0  0  0  0  0  0
   -2.7434    4.5061   -3.3080 C   0  0  0  0  0  0  0  0  0  0  0  0
   -4.1505    4.5401   -2.9522 C   0  0  0  0  0  0  0  0  0  0  0  0
   -4.8484    5.9126   -2.1445 S   0  0  0  0  0  0  0  0  0  0  0  0
   -6.4164    5.1815   -2.0870 C   0  0  0  0  0  0  0  0  0  0  0  0
   -7.5812    5.9116   -1.5158 C   0  0  0  0  0  0  0  0  0  0  0  0
   -8.1191    6.9419   -2.5115 C   0  0  0  0  0  0  0  0  0  0  0  0
   -6.3870    3.9525   -2.6747 C   0  0  0  0  0  0  0  0  0  0  0  0
   -7.7538    2.9236   -2.8144 Cl  0  0  0  0  0  0  0  0  0  0  0  0
   -5.1051    3.5830   -3.1635 C   0  0  0  0  0  0  0  0  0  0  0  0
   -4.8347    2.1131   -4.0097 Cl  0  0  0  0  0  0  0  0  0  0  0  0
   -2.1245    5.5516   -3.9743 C   0  0  0  0  0  0  0  0  0  0  0  0
   -0.7627    5.5229   -4.3649 C   0  0  0  0  0  0  0  0  0  0  0  0
    0.0280    4.3926   -4.0804 C   0  0  0  0  0  0  0  0  0  0  0  0
    1.4272    4.3331   -4.4645 C   0  0  0  0  0  0  0  0  0  0  0  0
    2.5307    5.6155   -4.0523 S   0  0  0  0  0  0  0  0  0  0  0  0
    3.8760    4.8037   -4.7777 C   0  0  0  0  0  0  0  0  0  0  0  0
    5.2445    5.3889   -4.7368 C   0  0  0  0  0  0  0  0  0  0  0  0
    5.9389    5.0684   -3.4112 C   0  0  0  0  0  0  0  0  0  0  0  0
    3.4800    3.6076   -5.2957 C   0  0  0  0  0  0  0  0  0  0  0  0
    2.0949    3.3391   -5.1253 C   0  0  0  0  0  0  0  0  0  0  0  0
    1.3484    1.9418   -5.7793 Cl  0  0  0  0  0  0  0  0  0  0  0  0
    4.5350    2.5163   -6.0965 Cl  0  0  0  0  0  0  0  0  0  0  0  0
   -0.5813    3.3609   -3.3779 C   0  0  0  0  0  0  0  0  0  0  0  0
    0.2110    1.9259   -2.7920 S   0  0  0  0  0  0  0  0  0  0  0  0
   -0.3854    6.7004   -5.0403 C   0  0  0  0  0  0  0  0  0  0  0  0
   -1.3886    7.6289   -5.1613 C   0  0  0  0  0  0  0  0  0  0  0  0
   -2.8864    7.0409   -4.4592 S   0  0  0  0  0  0  0  0  0  0  0  0
   -1.2438    8.9152   -5.7326 C   0  0  0  0  0  0  0  0  0  0  0  0
    0.3444    9.3924   -6.2471 S   0  0  0  0  0  0  0  0  0  0  0  0
   -0.1688   10.9773   -6.7349 C   0  0  0  0  0  0  0  0  0  0  0  0
   -1.5480   11.1227   -6.5057 C   0  0  0  0  0  0  0  0  0  0  0  0
   -2.1519    9.9580   -5.9395 C   0  0  0  0  0  0  0  0  0  0  0  0
   -3.5335    9.9677   -5.6578 C   0  0  0  0  0  0  0  0  0  0  0  0
   -4.2930   11.0728   -5.9047 C   0  0  0  0  0  0  0  0  0  0  0  0
   -5.7584   11.1072   -5.6154 C   0  0  0  0  0  0  0  0  0  0  0  0
   -3.6782   12.2443   -6.4442 C   0  0  0  0  0  0  0  0  0  0  0  0
   -4.5252   13.2926   -6.6308 O   0  0  0  0  0  0  0  0  0  0  0  0
   -4.0117   14.4830   -7.1751 C   0  0  0  0  0  0  0  0  0  0  0  0
   -2.3390   12.2662   -6.7337 C   0  0  0  0  0  0  0  0  0  0  0  0
    0.7593   11.8759   -7.3150 C   0  0  0  0  0  0  0  0  0  0  0  0
    0.2306   13.1914   -8.3281 S   0  0  0  0  0  0  0  0  0  0  0  0
    1.8263   13.6823   -8.6806 C   0  0  0  0  0  0  0  0  0  0  0  0
    2.7601   12.8908   -8.0524 C   0  0  0  0  0  0  0  0  0  0  0  0
    2.1612   11.8541   -7.2652 C   0  0  0  0  0  0  0  0  0  0  0  0
    3.0129   11.0007   -6.5325 C   0  0  0  0  0  0  0  0  0  0  0  0
    4.3686   11.1291   -6.6023 C   0  0  0  0  0  0  0  0  0  0  0  0
    5.2822   10.2294   -5.8337 C   0  0  0  0  0  0  0  0  0  0  0  0
    4.9555   12.1459   -7.4246 C   0  0  0  0  0  0  0  0  0  0  0  0
    6.3171   12.1557   -7.4165 O   0  0  0  0  0  0  0  0  0  0  0  0
    6.9835   13.1215   -8.1896 C   0  0  0  0  0  0  0  0  0  0  0  0
    4.1685   13.0157   -8.1239 C   0  0  0  0  0  0  0  0  0  0  0  0
    5.6535  -16.0095    6.4052 H   0  0  0  0  0  0  0  0  0  0  0  0
    3.6148  -15.2672    7.8436 H   0  0  0  0  0  0  0  0  0  0  0  0
   -0.5548  -14.1498   12.1050 H   0  0  0  0  0  0  0  0  0  0  0  0
    0.3919  -12.6515   12.1724 H   0  0  0  0  0  0  0  0  0  0  0  0
   -1.3771  -11.4706   10.8734 H   0  0  0  0  0  0  0  0  0  0  0  0
   -2.0318  -12.1569   12.3655 H   0  0  0  0  0  0  0  0  0  0  0  0
   -2.3323  -12.9559   10.8189 H   0  0  0  0  0  0  0  0  0  0  0  0
    6.1298   -9.8834   -0.4457 H   0  0  0  0  0  0  0  0  0  0  0  0
    6.3782   -8.8638    0.9841 H   0  0  0  0  0  0  0  0  0  0  0  0
    3.7848   -9.0340   -0.6278 H   0  0  0  0  0  0  0  0  0  0  0  0
    4.0358   -8.0272    0.8018 H   0  0  0  0  0  0  0  0  0  0  0  0
    4.9452   -7.7047   -0.6777 H   0  0  0  0  0  0  0  0  0  0  0  0
    1.9407   -9.9076    3.4206 H   0  0  0  0  0  0  0  0  0  0  0  0
   -1.7422   -9.6111    6.9376 H   0  0  0  0  0  0  0  0  0  0  0  0
   -3.5129   -9.4476    8.4832 H   0  0  0  0  0  0  0  0  0  0  0  0
   -3.9026   -7.7718    8.9184 H   0  0  0  0  0  0  0  0  0  0  0  0
   -4.9550   -8.6492    7.8252 H   0  0  0  0  0  0  0  0  0  0  0  0
   -5.3700   -5.0776    5.3515 H   0  0  0  0  0  0  0  0  0  0  0  0
   -5.9102   -4.6788    7.0003 H   0  0  0  0  0  0  0  0  0  0  0  0
   -4.2946   -4.1719    6.4509 H   0  0  0  0  0  0  0  0  0  0  0  0
   -3.0946   -5.3236    4.8351 H   0  0  0  0  0  0  0  0  0  0  0  0
   -3.0273   -4.8524    2.8152 H   0  0  0  0  0  0  0  0  0  0  0  0
   -8.3702   -2.1099    2.4045 H   0  0  0  0  0  0  0  0  0  0  0  0
   -8.1230   -2.6426    0.7314 H   0  0  0  0  0  0  0  0  0  0  0  0
   -9.0979   -0.3637    0.7799 H   0  0  0  0  0  0  0  0  0  0  0  0
   -7.4743   -0.3241    0.0835 H   0  0  0  0  0  0  0  0  0  0  0  0
   -7.7362    0.2164    1.7441 H   0  0  0  0  0  0  0  0  0  0  0  0
    5.3269   -0.8501   -1.0931 H   0  0  0  0  0  0  0  0  0  0  0  0
    5.9839   -2.4570   -1.4582 H   0  0  0  0  0  0  0  0  0  0  0  0
    7.1237   -1.4516    0.5128 H   0  0  0  0  0  0  0  0  0  0  0  0
    5.5723   -1.3041    1.3471 H   0  0  0  0  0  0  0  0  0  0  0  0
    6.2329   -2.9022    0.9859 H   0  0  0  0  0  0  0  0  0  0  0  0
    0.7167   -0.5411   -1.4751 H   0  0  0  0  0  0  0  0  0  0  0  0
   -3.2489    2.1439   -1.7226 H   0  0  0  0  0  0  0  0  0  0  0  0
   -7.2766    6.4206   -0.5995 H   0  0  0  0  0  0  0  0  0  0  0  0
   -8.3625    5.1896   -1.2730 H   0  0  0  0  0  0  0  0  0  0  0  0
   -8.9674    7.4689   -2.0832 H   0  0  0  0  0  0  0  0  0  0  0  0
   -8.4397    6.4501   -3.4266 H   0  0  0  0  0  0  0  0  0  0  0  0
   -7.3449    7.6649   -2.7577 H   0  0  0  0  0  0  0  0  0  0  0  0
    5.8253    4.9758   -5.5634 H   0  0  0  0  0  0  0  0  0  0  0  0
    5.1798    6.4714   -4.8603 H   0  0  0  0  0  0  0  0  0  0  0  0
    5.3691    5.4752   -2.5791 H   0  0  0  0  0  0  0  0  0  0  0  0
    6.0233    3.9924   -3.2814 H   0  0  0  0  0  0  0  0  0  0  0  0
    6.9357    5.5008   -3.3975 H   0  0  0  0  0  0  0  0  0  0  0  0
    0.6007    6.8736   -5.4308 H   0  0  0  0  0  0  0  0  0  0  0  0
   -3.9951    9.0867   -5.2416 H   0  0  0  0  0  0  0  0  0  0  0  0
   -5.9773   11.8937   -4.8948 H   0  0  0  0  0  0  0  0  0  0  0  0
   -6.3125   11.3387   -6.5235 H   0  0  0  0  0  0  0  0  0  0  0  0
   -6.0963   10.1534   -5.2202 H   0  0  0  0  0  0  0  0  0  0  0  0
   -3.5841   14.3185   -8.1693 H   0  0  0  0  0  0  0  0  0  0  0  0
   -4.8603   15.1608   -7.2538 H   0  0  0  0  0  0  0  0  0  0  0  0
   -3.2519   14.9279   -6.5243 H   0  0  0  0  0  0  0  0  0  0  0  0
   -1.8746   13.1545   -7.1235 H   0  0  0  0  0  0  0  0  0  0  0  0
    1.9912   14.5228   -9.3243 H   0  0  0  0  0  0  0  0  0  0  0  0
    2.5931   10.2414   -5.8931 H   0  0  0  0  0  0  0  0  0  0  0  0
    5.9368   10.8185   -5.1936 H   0  0  0  0  0  0  0  0  0  0  0  0
    5.9183    9.6714   -6.5195 H   0  0  0  0  0  0  0  0  0  0  0  0
    4.7131    9.5328   -5.2239 H   0  0  0  0  0  0  0  0  0  0  0  0
    6.7413   14.1372   -7.8600 H   0  0  0  0  0  0  0  0  0  0  0  0
    6.7442   13.0195   -9.2531 H   0  0  0  0  0  0  0  0  0  0  0  0
    8.0464   12.9382   -8.0400 H   0  0  0  0  0  0  0  0  0  0  0  0
    4.5780   13.8046   -8.7339 H   0  0  0  0  0  0  0  0  0  0  0  0
  1  2  2  0  0  0  0
  2  3  1  0  0  0  0
  3  4  2  0  0  0  0
  4  5  1  0  0  0  0
  5  6  1  0  0  0  0
  6  7  1  0  0  0  0
  7  8  1  0  0  0  0
  8  9  1  0  0  0  0
  7 10  2  0  0  0  0
 10 11  1  0  0  0  0
 10 12  1  0  0  0  0
 12 13  1  0  0  0  0
  4 14  1  0  0  0  0
 14 15  2  0  0  0  0
 15 16  1  0  0  0  0
 16 17  1  0  0  0  0
 17 18  1  0  0  0  0
 18 19  1  0  0  0  0
 19 20  1  0  0  0  0
 20 21  1  0  0  0  0
 19 22  2  0  0  0  0
 22 23  1  0  0  0  0
 23 24  1  0  0  0  0
 22 25  1  0  0  0  0
 16 26  2  0  0  0  0
 26 27  1  0  0  0  0
 15 28  1  0  0  0  0
 28 29  2  0  0  0  0
 29 30  1  0  0  0  0
 29 31  1  0  0  0  0
 31 32  1  0  0  0  0
 32 33  1  0  0  0  0
 33 34  2  0  0  0  0
 34 35  1  0  0  0  0
 35 36  1  0  0  0  0
 36 37  2  0  0  0  0
 37 38  1  0  0  0  0
 37 39  1  0  0  0  0
 39 40  1  0  0  0  0
 40 41  1  0  0  0  0
 39 42  2  0  0  0  0
 33 43  1  0  0  0  0
 43 44  2  0  0  0  0
 44 45  1  0  0  0  0
 45 46  2  0  0  0  0
 46 47  1  0  0  0  0
 47 48  1  0  0  0  0
 48 49  1  0  0  0  0
 49 50  1  0  0  0  0
 50 51  1  0  0  0  0
 49 52  2  0  0  0  0
 52 53  1  0  0  0  0
 52 54  1  0  0  0  0
 54 55  1  0  0  0  0
 46 56  1  0  0  0  0
 56 57  2  0  0  0  0
 57 58  1  0  0  0  0
 58 59  1  0  0  0  0
 59 60  1  0  0  0  0
 60 61  1  0  0  0  0
 61 62  1  0  0  0  0
 62 63  1  0  0  0  0
 61 64  2  0  0  0  0
 64 65  1  0  0  0  0
 65 66  1  0  0  0  0
 64 67  1  0  0  0  0
 58 68  2  0  0  0  0
 68 69  1  0  0  0  0
 57 70  1  0  0  0  0
 70 71  2  0  0  0  0
 71 72  1  0  0  0  0
 71 73  1  0  0  0  0
 73 74  2  0  0  0  0
 74 75  1  0  0  0  0
 75 76  2  0  0  0  0
 76 77  1  0  0  0  0
 77 78  1  0  0  0  0
 78 79  1  0  0  0  0
 79 80  1  0  0  0  0
 80 81  1  0  0  0  0
 79 82  2  0  0  0  0
 82 83  1  0  0  0  0
 82 84  1  0  0  0  0
 84 85  1  0  0  0  0
 76 86  1  0  0  0  0
 86 87  2  0  0  0  0
 87 88  1  0  0  0  0
 88 89  1  0  0  0  0
 89 90  1  0  0  0  0
 90 91  1  0  0  0  0
 91 92  1  0  0  0  0
 92 93  1  0  0  0  0
 91 94  2  0  0  0  0
 94 95  1  0  0  0  0
 95 96  1  0  0  0  0
 94 97  1  0  0  0  0
 88 98  2  0  0  0  0
 98 99  1  0  0  0  0
 87100  1  0  0  0  0
100101  2  0  0  0  0
101102  1  0  0  0  0
101103  1  0  0  0  0
103104  1  0  0  0  0
104105  1  0  0  0  0
105106  2  0  0  0  0
106107  1  0  0  0  0
107108  1  0  0  0  0
108109  2  0  0  0  0
109110  1  0  0  0  0
109111  1  0  0  0  0
111112  1  0  0  0  0
112113  1  0  0  0  0
111114  2  0  0  0  0
105115  1  0  0  0  0
115116  1  0  0  0  0
116117  1  0  0  0  0
117118  2  0  0  0  0
118119  1  0  0  0  0
119120  1  0  0  0  0
120121  2  0  0  0  0
121122  1  0  0  0  0
121123  1  0  0  0  0
123124  1  0  0  0  0
124125  1  0  0  0  0
123126  2  0  0  0  0
 27  1  1  0  0  0  0
 35 31  2  0  0  0  0
 69 43  1  0  0  0  0
 99 73  1  0  0  0  0
107103  2  0  0  0  0
119115  2  0  0  0  0
 26  3  1  0  0  0  0
 42 34  1  0  0  0  0
 68 45  1  0  0  0  0
 98 75  1  0  0  0  0
114106  1  0  0  0  0
126118  1  0  0  0  0
 12  5  2  0  0  0  0
 30 14  1  0  0  0  0
 54 47  2  0  0  0  0
 72 56  1  0  0  0  0
 84 77  2  0  0  0  0
102 86  1  0  0  0  0
 23 17  2  0  0  0  0
 65 59  2  0  0  0  0
 95 89  2  0  0  0  0
  1127  1  0  0  0  0
  2128  1  0  0  0  0
  8129  1  0  0  0  0
  8130  1  0  0  0  0
  9131  1  0  0  0  0
  9132  1  0  0  0  0
  9133  1  0  0  0  0
 20134  1  0  0  0  0
 20135  1  0  0  0  0
 21136  1  0  0  0  0
 21137  1  0  0  0  0
 21138  1  0  0  0  0
 28139  1  0  0  0  0
 36140  1  0  0  0  0
 38141  1  0  0  0  0
 38142  1  0  0  0  0
 38143  1  0  0  0  0
 41144  1  0  0  0  0
 41145  1  0  0  0  0
 41146  1  0  0  0  0
 42147  1  0  0  0  0
 44148  1  0  0  0  0
 50149  1  0  0  0  0
 50150  1  0  0  0  0
 51151  1  0  0  0  0
 51152  1  0  0  0  0
 51153  1  0  0  0  0
 62154  1  0  0  0  0
 62155  1  0  0  0  0
 63156  1  0  0  0  0
 63157  1  0  0  0  0
 63158  1  0  0  0  0
 70159  1  0  0  0  0
 74160  1  0  0  0  0
 80161  1  0  0  0  0
 80162  1  0  0  0  0
 81163  1  0  0  0  0
 81164  1  0  0  0  0
 81165  1  0  0  0  0
 92166  1  0  0  0  0
 92167  1  0  0  0  0
 93168  1  0  0  0  0
 93169  1  0  0  0  0
 93170  1  0  0  0  0
100171  1  0  0  0  0
108172  1  0  0  0  0
110173  1  0  0  0  0
110174  1  0  0  0  0
110175  1  0  0  0  0
113176  1  0  0  0  0
113177  1  0  0  0  0
113178  1  0  0  0  0
114179  1  0  0  0  0
117180  1  0  0  0  0
120181  1  0  0  0  0
122182  1  0  0  0  0
122183  1  0  0  0  0
122184  1  0  0  0  0
125185  1  0  0  0  0
125186  1  0  0  0  0
125187  1  0  0  0  0
126188  1  0  0  0  0
M  END
