
  xtb     03032208483D
 energy: -198.103189308962 gnorm: 0.000624353272 xtb: 6.4.1 (unknown)
102113  0     0  0            999 V2000
    5.6095   -0.4356   -0.4927 C   0  0  0  0  0  0  0  0  0  0  0  0
    5.9998   -0.6538    0.7808 C   0  0  0  0  0  0  0  0  0  0  0  0
    6.9059   -1.5458    1.1917 F   0  0  0  0  0  0  0  0  0  0  0  0
    5.2985    0.2272    1.6950 C   0  0  0  0  0  0  0  0  0  0  0  0
    4.5123    1.0285    0.9500 C   0  0  0  0  0  0  0  0  0  0  0  0
    4.6383    0.6353   -0.4496 C   0  0  0  0  0  0  0  0  0  0  0  0
    3.9474    1.2057   -1.4832 C   0  0  0  0  0  0  0  0  0  0  0  0
    3.8688    0.7444   -2.8916 C   0  0  0  0  0  0  0  0  0  0  0  0
    3.4078    1.7889   -3.6376 C   0  0  0  0  0  0  0  0  0  0  0  0
    3.1186    2.8698   -2.7397 C   0  0  0  0  0  0  0  0  0  0  0  0
    3.3643    2.5189   -1.4499 C   0  0  0  0  0  0  0  0  0  0  0  0
    2.6891    4.0558   -3.1607 F   0  0  0  0  0  0  0  0  0  0  0  0
    4.1813   -0.5592   -3.3901 C   0  0  0  0  0  0  0  0  0  0  0  0
    4.7163   -0.8347   -4.6208 C   0  0  0  0  0  0  0  0  0  0  0  0
    4.9844    0.0602   -5.5788 F   0  0  0  0  0  0  0  0  0  0  0  0
    5.0363   -2.2260   -4.7492 C   0  0  0  0  0  0  0  0  0  0  0  0
    4.7087   -2.8327   -3.5806 C   0  0  0  0  0  0  0  0  0  0  0  0
    4.0938   -1.8593   -2.7049 C   0  0  0  0  0  0  0  0  0  0  0  0
    3.4916   -2.1881   -1.5174 C   0  0  0  0  0  0  0  0  0  0  0  0
    2.5491   -1.3980   -0.6837 C   0  0  0  0  0  0  0  0  0  0  0  0
    2.5197   -1.9855    0.5571 C   0  0  0  0  0  0  0  0  0  0  0  0
    3.3221   -3.1596    0.4992 C   0  0  0  0  0  0  0  0  0  0  0  0
    3.8518   -3.3381   -0.7446 C   0  0  0  0  0  0  0  0  0  0  0  0
    3.4926   -3.9715    1.5417 F   0  0  0  0  0  0  0  0  0  0  0  0
    1.6822   -0.3486   -1.0714 C   0  0  0  0  0  0  0  0  0  0  0  0
    1.0889    0.6883    0.1855 S   0  0  0  0  0  0  0  0  0  0  0  0
   -0.0137    1.5075   -0.8502 C   0  0  0  0  0  0  0  0  0  0  0  0
    0.0756    0.9839   -2.1535 C   0  0  0  0  0  0  0  0  0  0  0  0
    1.0141   -0.0818   -2.2754 C   0  0  0  0  0  0  0  0  0  0  0  0
    1.1143   -0.7652   -3.5012 C   0  0  0  0  0  0  0  0  0  0  0  0
    0.3882   -0.3673   -4.5877 C   0  0  0  0  0  0  0  0  0  0  0  0
    0.5093   -1.0504   -5.9102 C   0  0  0  0  0  0  0  0  0  0  0  0
   -0.5219    0.7276   -4.4697 C   0  0  0  0  0  0  0  0  0  0  0  0
   -1.1814    1.0431   -5.6114 O   0  0  0  0  0  0  0  0  0  0  0  0
   -2.0279    2.1679   -5.6120 C   0  0  0  0  0  0  0  0  0  0  0  0
   -0.7033    1.3602   -3.2642 C   0  0  0  0  0  0  0  0  0  0  0  0
   -0.7594    2.6865   -0.5021 C   0  0  0  0  0  0  0  0  0  0  0  0
   -0.7259    3.7962   -1.3121 C   0  0  0  0  0  0  0  0  0  0  0  0
    0.0813    3.9676   -2.3620 F   0  0  0  0  0  0  0  0  0  0  0  0
   -1.6532    4.7990   -0.8874 C   0  0  0  0  0  0  0  0  0  0  0  0
   -2.3490    4.2772    0.1461 C   0  0  0  0  0  0  0  0  0  0  0  0
   -1.8309    2.9561    0.4756 C   0  0  0  0  0  0  0  0  0  0  0  0
   -2.4519    2.2235    1.4577 C   0  0  0  0  0  0  0  0  0  0  0  0
   -2.0163    1.1022    2.3151 C   0  0  0  0  0  0  0  0  0  0  0  0
   -3.0802    0.7161    3.0766 C   0  0  0  0  0  0  0  0  0  0  0  0
   -4.1922    1.5522    2.7317 C   0  0  0  0  0  0  0  0  0  0  0  0
   -3.8290    2.4819    1.8178 C   0  0  0  0  0  0  0  0  0  0  0  0
   -5.4011    1.4210    3.2835 F   0  0  0  0  0  0  0  0  0  0  0  0
   -0.6667    0.7048    2.6010 C   0  0  0  0  0  0  0  0  0  0  0  0
    0.3814    1.5534    2.8245 C   0  0  0  0  0  0  0  0  0  0  0  0
    0.3941    2.8689    2.5966 F   0  0  0  0  0  0  0  0  0  0  0  0
    1.4983    0.8559    3.4109 C   0  0  0  0  0  0  0  0  0  0  0  0
    1.1273   -0.4288    3.5952 C   0  0  0  0  0  0  0  0  0  0  0  0
   -0.2246   -0.6132    3.0815 C   0  0  0  0  0  0  0  0  0  0  0  0
   -0.8664   -1.8178    3.0708 C   0  0  0  0  0  0  0  0  0  0  0  0
   -2.1194   -2.2311    2.3876 C   0  0  0  0  0  0  0  0  0  0  0  0
   -2.4672   -3.4506    2.8674 C   0  0  0  0  0  0  0  0  0  0  0  0
   -1.4558   -3.8563    3.8188 C   0  0  0  0  0  0  0  0  0  0  0  0
   -0.4737   -2.9333    3.9058 C   0  0  0  0  0  0  0  0  0  0  0  0
   -1.5220   -5.0077    4.4830 F   0  0  0  0  0  0  0  0  0  0  0  0
   -2.6956   -1.5657    1.2380 C   0  0  0  0  0  0  0  0  0  0  0  0
   -2.0002   -1.2737    0.1079 C   0  0  0  0  0  0  0  0  0  0  0  0
   -0.7154   -1.5761   -0.1047 F   0  0  0  0  0  0  0  0  0  0  0  0
   -2.8457   -0.6752   -0.8978 C   0  0  0  0  0  0  0  0  0  0  0  0
   -4.0905   -0.6158   -0.3864 C   0  0  0  0  0  0  0  0  0  0  0  0
   -4.0836   -1.1812    0.9593 C   0  0  0  0  0  0  0  0  0  0  0  0
   -5.1835   -1.2935    1.7534 C   0  0  0  0  0  0  0  0  0  0  0  0
   -5.2616   -1.7849    3.1326 C   0  0  0  0  0  0  0  0  0  0  0  0
   -6.5348   -1.6965    3.5484 C   0  0  0  0  0  0  0  0  0  0  0  0
   -7.3180   -1.1532    2.4431 C   0  0  0  0  0  0  0  0  0  0  0  0
   -6.5333   -0.9083    1.3776 C   0  0  0  0  0  0  0  0  0  0  0  0
   -8.6300   -0.9521    2.5307 F   0  0  0  0  0  0  0  0  0  0  0  0
    6.0012   -0.8945   -1.3770 H   0  0  0  0  0  0  0  0  0  0  0  0
    5.4248    0.2142    2.7607 H   0  0  0  0  0  0  0  0  0  0  0  0
    3.8380    1.7847    1.3007 H   0  0  0  0  0  0  0  0  0  0  0  0
    3.2309    1.8098   -4.6949 H   0  0  0  0  0  0  0  0  0  0  0  0
    3.2725    3.1447   -0.5853 H   0  0  0  0  0  0  0  0  0  0  0  0
    5.4694   -2.6713   -5.6248 H   0  0  0  0  0  0  0  0  0  0  0  0
    4.7839   -3.8795   -3.3622 H   0  0  0  0  0  0  0  0  0  0  0  0
    1.9280   -1.6794    1.3976 H   0  0  0  0  0  0  0  0  0  0  0  0
    4.5309   -4.1106   -1.0423 H   0  0  0  0  0  0  0  0  0  0  0  0
    1.7715   -1.6157   -3.5814 H   0  0  0  0  0  0  0  0  0  0  0  0
    0.8671   -0.3444   -6.6582 H   0  0  0  0  0  0  0  0  0  0  0  0
   -0.4647   -1.4053   -6.2428 H   0  0  0  0  0  0  0  0  0  0  0  0
    1.1990   -1.8877   -5.8508 H   0  0  0  0  0  0  0  0  0  0  0  0
   -2.8983    2.0173   -4.9647 H   0  0  0  0  0  0  0  0  0  0  0  0
   -1.4921    3.0688   -5.2983 H   0  0  0  0  0  0  0  0  0  0  0  0
   -2.3626    2.2841   -6.6415 H   0  0  0  0  0  0  0  0  0  0  0  0
   -1.4371    2.1406   -3.1468 H   0  0  0  0  0  0  0  0  0  0  0  0
   -1.7358    5.7753   -1.3248 H   0  0  0  0  0  0  0  0  0  0  0  0
   -3.0880    4.7860    0.7315 H   0  0  0  0  0  0  0  0  0  0  0  0
   -3.0850   -0.0205    3.8555 H   0  0  0  0  0  0  0  0  0  0  0  0
   -4.4738    3.1998    1.3547 H   0  0  0  0  0  0  0  0  0  0  0  0
    2.4358    1.3158    3.6577 H   0  0  0  0  0  0  0  0  0  0  0  0
    1.7391   -1.2190    3.9835 H   0  0  0  0  0  0  0  0  0  0  0  0
   -3.2996   -4.0587    2.5683 H   0  0  0  0  0  0  0  0  0  0  0  0
    0.3802   -2.9646    4.5507 H   0  0  0  0  0  0  0  0  0  0  0  0
   -2.4999   -0.3627   -1.8649 H   0  0  0  0  0  0  0  0  0  0  0  0
   -4.9629   -0.2192   -0.8657 H   0  0  0  0  0  0  0  0  0  0  0  0
   -4.4208   -2.1324    3.6974 H   0  0  0  0  0  0  0  0  0  0  0  0
   -6.9453   -1.9542    4.5057 H   0  0  0  0  0  0  0  0  0  0  0  0
   -6.8333   -0.5095    0.4306 H   0  0  0  0  0  0  0  0  0  0  0  0
  1  2  2  0  0  0  0
  2  3  1  0  0  0  0
  2  4  1  0  0  0  0
  4  5  2  0  0  0  0
  5  6  1  0  0  0  0
  6  7  2  0  0  0  0
  7  8  1  0  0  0  0
  8  9  2  0  0  0  0
  9 10  1  0  0  0  0
 10 11  2  0  0  0  0
 10 12  1  0  0  0  0
  8 13  1  0  0  0  0
 13 14  2  0  0  0  0
 14 15  1  0  0  0  0
 14 16  1  0  0  0  0
 16 17  2  0  0  0  0
 17 18  1  0  0  0  0
 18 19  2  0  0  0  0
 19 20  1  0  0  0  0
 20 21  2  0  0  0  0
 21 22  1  0  0  0  0
 22 23  2  0  0  0  0
 22 24  1  0  0  0  0
 20 25  1  0  0  0  0
 25 26  1  0  0  0  0
 26 27  1  0  0  0  0
 27 28  2  0  0  0  0
 28 29  1  0  0  0  0
 29 30  1  0  0  0  0
 30 31  2  0  0  0  0
 31 32  1  0  0  0  0
 31 33  1  0  0  0  0
 33 34  1  0  0  0  0
 34 35  1  0  0  0  0
 33 36  2  0  0  0  0
 27 37  1  0  0  0  0
 37 38  2  0  0  0  0
 38 39  1  0  0  0  0
 38 40  1  0  0  0  0
 40 41  2  0  0  0  0
 41 42  1  0  0  0  0
 42 43  2  0  0  0  0
 43 44  1  0  0  0  0
 44 45  2  0  0  0  0
 45 46  1  0  0  0  0
 46 47  2  0  0  0  0
 46 48  1  0  0  0  0
 44 49  1  0  0  0  0
 49 50  2  0  0  0  0
 50 51  1  0  0  0  0
 50 52  1  0  0  0  0
 52 53  2  0  0  0  0
 53 54  1  0  0  0  0
 54 55  2  0  0  0  0
 55 56  1  0  0  0  0
 56 57  2  0  0  0  0
 57 58  1  0  0  0  0
 58 59  2  0  0  0  0
 58 60  1  0  0  0  0
 56 61  1  0  0  0  0
 61 62  2  0  0  0  0
 62 63  1  0  0  0  0
 62 64  1  0  0  0  0
 64 65  2  0  0  0  0
 65 66  1  0  0  0  0
 66 67  2  0  0  0  0
 67 68  1  0  0  0  0
 68 69  2  0  0  0  0
 69 70  1  0  0  0  0
 70 71  2  0  0  0  0
 70 72  1  0  0  0  0
  6  1  1  0  0  0  0
 11  7  1  0  0  0  0
 18 13  1  0  0  0  0
 23 19  1  0  0  0  0
 29 25  2  0  0  0  0
 42 37  1  0  0  0  0
 47 43  1  0  0  0  0
 54 49  1  0  0  0  0
 59 55  1  0  0  0  0
 66 61  1  0  0  0  0
 71 67  1  0  0  0  0
 36 28  1  0  0  0  0
  1 73  1  0  0  0  0
  4 74  1  0  0  0  0
  5 75  1  0  0  0  0
  9 76  1  0  0  0  0
 11 77  1  0  0  0  0
 16 78  1  0  0  0  0
 17 79  1  0  0  0  0
 21 80  1  0  0  0  0
 23 81  1  0  0  0  0
 30 82  1  0  0  0  0
 32 83  1  0  0  0  0
 32 84  1  0  0  0  0
 32 85  1  0  0  0  0
 35 86  1  0  0  0  0
 35 87  1  0  0  0  0
 35 88  1  0  0  0  0
 36 89  1  0  0  0  0
 40 90  1  0  0  0  0
 41 91  1  0  0  0  0
 45 92  1  0  0  0  0
 47 93  1  0  0  0  0
 52 94  1  0  0  0  0
 53 95  1  0  0  0  0
 57 96  1  0  0  0  0
 59 97  1  0  0  0  0
 64 98  1  0  0  0  0
 65 99  1  0  0  0  0
 68100  1  0  0  0  0
 69101  1  0  0  0  0
 71102  1  0  0  0  0
M  END
