
  xtb     03042206143D
 energy: -150.321675840159 gnorm: 0.000546604697 xtb: 6.4.1 (unknown)
 78 85  0     0  0            999 V2000
    5.7490    2.5108    8.8339 C   0  0  0  0  0  0  0  0  0  0  0  0
    4.6821    1.7989    9.1968 C   0  0  0  0  0  0  0  0  0  0  0  0
    3.7962    1.3812    8.1363 C   0  0  0  0  0  0  0  0  0  0  0  0
    4.1622    1.7681    6.8956 C   0  0  0  0  0  0  0  0  0  0  0  0
    5.7074    2.7139    7.0489 S   0  0  0  0  0  6  0  0  0  0  0  0
    5.5061    4.0882    6.6806 O   0  0  0  0  0  0  0  0  0  0  0  0
    6.7960    2.0222    6.4151 O   0  0  0  0  0  0  0  0  0  0  0  0
    3.5699    1.5454    5.6587 C   0  0  0  0  0  0  0  0  0  0  0  0
    3.9457    1.9526    4.4177 C   0  0  0  0  0  0  0  0  0  0  0  0
    3.1154    1.5381    3.3499 C   0  0  0  0  0  0  0  0  0  0  0  0
    2.0139    0.7913    3.6677 C   0  0  0  0  0  0  0  0  0  0  0  0
    2.0327    0.6132    5.4810 S   0  0  0  0  0  6  0  0  0  0  0  0
    0.9460    1.3237    6.1022 O   0  0  0  0  0  0  0  0  0  0  0  0
    2.1958   -0.7649    5.8579 O   0  0  0  0  0  0  0  0  0  0  0  0
    1.0913    0.2059    2.8028 C   0  0  0  0  0  0  0  0  0  0  0  0
    1.3493    0.3071    1.0761 S   0  0  0  0  0  0  0  0  0  0  0  0
   -0.0255   -0.6835    0.7208 C   0  0  0  0  0  0  0  0  0  0  0  0
   -0.7184   -1.0159    1.9010 C   0  0  0  0  0  0  0  0  0  0  0  0
   -0.0818   -0.5268    3.0777 C   0  0  0  0  0  0  0  0  0  0  0  0
   -0.6746   -0.7745    4.3278 C   0  0  0  0  0  0  0  0  0  0  0  0
   -1.8590   -1.4551    4.4164 C   0  0  0  0  0  0  0  0  0  0  0  0
   -2.5076   -1.7280    5.7320 C   0  0  0  0  0  0  0  0  0  0  0  0
   -2.5202   -1.8914    3.2278 C   0  0  0  0  0  0  0  0  0  0  0  0
   -3.7048   -2.5171    3.4305 O   0  0  0  0  0  0  0  0  0  0  0  0
   -4.4255   -2.9810    2.3137 C   0  0  0  0  0  0  0  0  0  0  0  0
   -1.9632   -1.6643    1.9926 C   0  0  0  0  0  0  0  0  0  0  0  0
   -0.3310   -1.0197   -0.6180 C   0  0  0  0  0  0  0  0  0  0  0  0
   -0.0336    0.1110   -1.8980 S   0  0  0  0  0  0  0  0  0  0  0  0
   -0.7219   -0.9460   -3.0971 C   0  0  0  0  0  0  0  0  0  0  0  0
   -1.1169   -2.1752   -2.5178 C   0  0  0  0  0  0  0  0  0  0  0  0
   -0.8763   -2.2207   -1.1173 C   0  0  0  0  0  0  0  0  0  0  0  0
   -1.0875   -3.4273   -0.4225 C   0  0  0  0  0  0  0  0  0  0  0  0
   -1.6017   -4.5216   -1.0601 C   0  0  0  0  0  0  0  0  0  0  0  0
   -1.8374   -5.8146   -0.3491 C   0  0  0  0  0  0  0  0  0  0  0  0
   -1.9129   -4.4443   -2.4505 C   0  0  0  0  0  0  0  0  0  0  0  0
   -2.4362   -5.5771   -2.9750 O   0  0  0  0  0  0  0  0  0  0  0  0
   -2.7570   -5.6110   -4.3457 C   0  0  0  0  0  0  0  0  0  0  0  0
   -1.6545   -3.2965   -3.1664 C   0  0  0  0  0  0  0  0  0  0  0  0
   -0.7790   -0.4624   -4.3985 C   0  0  0  0  0  0  0  0  0  0  0  0
   -1.2799   -0.8946   -5.5930 C   0  0  0  0  0  0  0  0  0  0  0  0
   -1.1021   -0.0235   -6.6970 C   0  0  0  0  0  0  0  0  0  0  0  0
   -0.4548    1.1481   -6.4586 C   0  0  0  0  0  0  0  0  0  0  0  0
   -0.0426    1.1735   -4.7008 S   0  0  0  0  0  6  0  0  0  0  0  0
    1.3768    1.1335   -4.4774 O   0  0  0  0  0  0  0  0  0  0  0  0
   -0.7787    2.1895   -3.9982 O   0  0  0  0  0  0  0  0  0  0  0  0
   -0.1480    2.1842   -7.3323 C   0  0  0  0  0  0  0  0  0  0  0  0
    0.4873    3.3591   -7.1375 C   0  0  0  0  0  0  0  0  0  0  0  0
    0.6083    4.1930   -8.3101 C   0  0  0  0  0  0  0  0  0  0  0  0
    0.0828    3.7141   -9.4378 C   0  0  0  0  0  0  0  0  0  0  0  0
   -0.6284    2.1032   -9.0834 S   0  0  0  0  0  6  0  0  0  0  0  0
    0.0799    1.0524   -9.7631 O   0  0  0  0  0  0  0  0  0  0  0  0
   -2.0597    2.1131   -9.2212 O   0  0  0  0  0  0  0  0  0  0  0  0
    6.5285    2.9176    9.4432 H   0  0  0  0  0  0  0  0  0  0  0  0
    4.4564    1.5272   10.2167 H   0  0  0  0  0  0  0  0  0  0  0  0
    2.9100    0.8019    8.3380 H   0  0  0  0  0  0  0  0  0  0  0  0
    4.8283    2.5499    4.2510 H   0  0  0  0  0  0  0  0  0  0  0  0
    3.3542    1.8050    2.3316 H   0  0  0  0  0  0  0  0  0  0  0  0
   -0.2032   -0.4113    5.2232 H   0  0  0  0  0  0  0  0  0  0  0  0
   -1.9073   -1.3271    6.5426 H   0  0  0  0  0  0  0  0  0  0  0  0
   -2.6346   -2.8006    5.8698 H   0  0  0  0  0  0  0  0  0  0  0  0
   -3.4998   -1.2800    5.7584 H   0  0  0  0  0  0  0  0  0  0  0  0
   -4.7238   -2.1573    1.6579 H   0  0  0  0  0  0  0  0  0  0  0  0
   -3.8479   -3.7110    1.7379 H   0  0  0  0  0  0  0  0  0  0  0  0
   -5.3156   -3.4602    2.7178 H   0  0  0  0  0  0  0  0  0  0  0  0
   -2.4682   -1.9471    1.0851 H   0  0  0  0  0  0  0  0  0  0  0  0
   -0.8127   -3.4932    0.6184 H   0  0  0  0  0  0  0  0  0  0  0  0
   -1.5478   -5.7415    0.6953 H   0  0  0  0  0  0  0  0  0  0  0  0
   -1.2660   -6.6102   -0.8239 H   0  0  0  0  0  0  0  0  0  0  0  0
   -2.8884   -6.0919   -0.4155 H   0  0  0  0  0  0  0  0  0  0  0  0
   -3.1584   -6.6064   -4.5280 H   0  0  0  0  0  0  0  0  0  0  0  0
   -1.8707   -5.4590   -4.9689 H   0  0  0  0  0  0  0  0  0  0  0  0
   -3.5149   -4.8630   -4.5978 H   0  0  0  0  0  0  0  0  0  0  0  0
   -1.8382   -3.2514   -4.2243 H   0  0  0  0  0  0  0  0  0  0  0  0
   -1.7973   -1.8286   -5.7316 H   0  0  0  0  0  0  0  0  0  0  0  0
   -1.4669   -0.2820   -7.6790 H   0  0  0  0  0  0  0  0  0  0  0  0
    0.8819    3.6683   -6.1834 H   0  0  0  0  0  0  0  0  0  0  0  0
    1.1055    5.1481   -8.2346 H   0  0  0  0  0  0  0  0  0  0  0  0
    0.0579    4.1553  -10.4120 H   0  0  0  0  0  0  0  0  0  0  0  0
  1  2  2  0  0  0  0
  2  3  1  0  0  0  0
  3  4  2  0  0  0  0
  4  5  1  0  0  0  0
  5  6  2  0  0  0  0
  5  7  2  0  0  0  0
  4  8  1  0  0  0  0
  8  9  2  0  0  0  0
  9 10  1  0  0  0  0
 10 11  2  0  0  0  0
 11 12  1  0  0  0  0
 12 13  2  0  0  0  0
 12 14  2  0  0  0  0
 11 15  1  0  0  0  0
 15 16  1  0  0  0  0
 16 17  1  0  0  0  0
 17 18  2  0  0  0  0
 18 19  1  0  0  0  0
 19 20  1  0  0  0  0
 20 21  2  0  0  0  0
 21 22  1  0  0  0  0
 21 23  1  0  0  0  0
 23 24  1  0  0  0  0
 24 25  1  0  0  0  0
 23 26  2  0  0  0  0
 17 27  1  0  0  0  0
 27 28  1  0  0  0  0
 28 29  1  0  0  0  0
 29 30  2  0  0  0  0
 30 31  1  0  0  0  0
 31 32  1  0  0  0  0
 32 33  2  0  0  0  0
 33 34  1  0  0  0  0
 33 35  1  0  0  0  0
 35 36  1  0  0  0  0
 36 37  1  0  0  0  0
 35 38  2  0  0  0  0
 29 39  1  0  0  0  0
 39 40  2  0  0  0  0
 40 41  1  0  0  0  0
 41 42  2  0  0  0  0
 42 43  1  0  0  0  0
 43 44  2  0  0  0  0
 43 45  2  0  0  0  0
 42 46  1  0  0  0  0
 46 47  2  0  0  0  0
 47 48  1  0  0  0  0
 48 49  2  0  0  0  0
 49 50  1  0  0  0  0
 50 51  2  0  0  0  0
 50 52  2  0  0  0  0
  5  1  1  0  0  0  0
 12  8  1  0  0  0  0
 19 15  2  0  0  0  0
 31 27  2  0  0  0  0
 43 39  1  0  0  0  0
 50 46  1  0  0  0  0
 26 18  1  0  0  0  0
 38 30  1  0  0  0  0
  1 53  1  0  0  0  0
  2 54  1  0  0  0  0
  3 55  1  0  0  0  0
  9 56  1  0  0  0  0
 10 57  1  0  0  0  0
 20 58  1  0  0  0  0
 22 59  1  0  0  0  0
 22 60  1  0  0  0  0
 22 61  1  0  0  0  0
 25 62  1  0  0  0  0
 25 63  1  0  0  0  0
 25 64  1  0  0  0  0
 26 65  1  0  0  0  0
 32 66  1  0  0  0  0
 34 67  1  0  0  0  0
 34 68  1  0  0  0  0
 34 69  1  0  0  0  0
 37 70  1  0  0  0  0
 37 71  1  0  0  0  0
 37 72  1  0  0  0  0
 38 73  1  0  0  0  0
 40 74  1  0  0  0  0
 41 75  1  0  0  0  0
 47 76  1  0  0  0  0
 48 77  1  0  0  0  0
 49 78  1  0  0  0  0
M  END
