
  xtb     03052206073D
 energy: -252.462139247304 gnorm: 0.000445819176 xtb: 6.4.1 (unknown)
152166  0     0  0            999 V2000
   -5.0736    6.6624    6.4730 C   0  0  0  0  0  0  0  0  0  0  0  0
   -4.1061    5.7279    6.3853 C   0  0  0  0  0  0  0  0  0  0  0  0
   -4.2438    4.8898    5.2385 C   0  0  0  0  0  0  0  0  0  0  0  0
   -3.4030    3.8475    4.8163 C   0  0  0  0  0  0  0  0  0  0  0  0
   -2.2529    3.4201    5.6234 C   0  0  0  0  0  0  0  0  0  0  0  0
   -2.4057    3.1195    6.9763 C   0  0  0  0  0  0  0  0  0  0  0  0
   -1.3288    2.7055    7.7297 C   0  0  0  0  0  0  0  0  0  0  0  0
   -0.0556    2.5905    7.1744 C   0  0  0  0  0  0  0  0  0  0  0  0
    1.2551    2.1149    8.2634 S   0  0  0  0  0  0  0  0  0  0  0  0
    2.3164    1.0176    7.2530 C   0  0  0  0  0  0  0  0  0  0  0  0
    1.5424   -0.1565    6.6884 C   0  0  0  0  0  0  0  0  0  0  0  0
    0.0862    2.9134    5.8286 C   0  0  0  0  0  0  0  0  0  0  0  0
    1.2970    2.8680    5.2301 F   0  0  0  0  0  0  0  0  0  0  0  0
   -0.9893    3.3022    5.0552 C   0  0  0  0  0  0  0  0  0  0  0  0
   -3.7227    3.2365    3.6140 C   0  0  0  0  0  0  0  0  0  0  0  0
   -4.8446    3.6053    2.8303 C   0  0  0  0  0  0  0  0  0  0  0  0
   -5.6862    4.6463    3.2546 C   0  0  0  0  0  0  0  0  0  0  0  0
   -6.8413    5.0646    2.4514 C   0  0  0  0  0  0  0  0  0  0  0  0
   -8.1150    5.1546    3.0090 C   0  0  0  0  0  0  0  0  0  0  0  0
   -9.1978    5.5070    2.2318 C   0  0  0  0  0  0  0  0  0  0  0  0
   -9.0528    5.8032    0.8784 C   0  0  0  0  0  0  0  0  0  0  0  0
  -10.5075    6.2557   -0.0229 S   0  0  0  0  0  0  0  0  0  0  0  0
  -10.3034    5.3971   -1.6286 C   0  0  0  0  0  0  0  0  0  0  0  0
  -10.1008    3.9052   -1.4559 C   0  0  0  0  0  0  0  0  0  0  0  0
   -7.7673    5.7614    0.3476 C   0  0  0  0  0  0  0  0  0  0  0  0
   -6.6793    5.3815    1.1060 C   0  0  0  0  0  0  0  0  0  0  0  0
   -7.5398    6.0921   -0.9438 F   0  0  0  0  0  0  0  0  0  0  0  0
   -5.3654    5.2570    4.4584 C   0  0  0  0  0  0  0  0  0  0  0  0
   -6.2209    6.5980    5.1776 S   0  0  0  0  0  0  0  0  0  0  0  0
   -4.9823    2.7927    1.6780 C   0  0  0  0  0  0  0  0  0  0  0  0
   -4.0149    1.8349    1.5530 C   0  0  0  0  0  0  0  0  0  0  0  0
   -2.8659    1.9036    2.8865 S   0  0  0  0  0  0  0  0  0  0  0  0
   -3.8033    0.8796    0.5233 C   0  0  0  0  0  0  0  0  0  0  0  0
   -2.2330    0.1565    0.3803 S   0  0  0  0  0  0  0  0  0  0  0  0
   -2.6826   -0.7737   -1.0128 C   0  0  0  0  0  0  0  0  0  0  0  0
   -4.0067   -0.5005   -1.3745 C   0  0  0  0  0  0  0  0  0  0  0  0
   -4.6547    0.4101   -0.4842 C   0  0  0  0  0  0  0  0  0  0  0  0
   -6.0193    0.7007   -0.7021 C   0  0  0  0  0  0  0  0  0  0  0  0
   -6.6820    0.2010   -1.7848 C   0  0  0  0  0  0  0  0  0  0  0  0
   -8.1261    0.4969   -2.0353 C   0  0  0  0  0  0  0  0  0  0  0  0
   -5.9852   -0.6108   -2.7333 C   0  0  0  0  0  0  0  0  0  0  0  0
   -6.7299   -0.9975   -3.8074 O   0  0  0  0  0  0  0  0  0  0  0  0
   -6.1242   -1.8127   -4.7791 C   0  0  0  0  0  0  0  0  0  0  0  0
   -4.6779   -0.9590   -2.5268 C   0  0  0  0  0  0  0  0  0  0  0  0
   -1.7236   -1.6298   -1.6067 C   0  0  0  0  0  0  0  0  0  0  0  0
   -0.0563   -1.1488   -1.5922 S   0  0  0  0  0  0  0  0  0  0  0  0
    0.4702   -2.5941   -2.4036 C   0  0  0  0  0  0  0  0  0  0  0  0
   -0.6178   -3.4520   -2.6218 C   0  0  0  0  0  0  0  0  0  0  0  0
   -1.8589   -2.9017   -2.1772 C   0  0  0  0  0  0  0  0  0  0  0  0
   -3.0196   -3.7030   -2.2283 C   0  0  0  0  0  0  0  0  0  0  0  0
   -2.9773   -4.9694   -2.7338 C   0  0  0  0  0  0  0  0  0  0  0  0
   -4.1953   -5.8342   -2.8054 C   0  0  0  0  0  0  0  0  0  0  0  0
   -1.7310   -5.5132   -3.1723 C   0  0  0  0  0  0  0  0  0  0  0  0
   -1.8006   -6.7963   -3.6279 O   0  0  0  0  0  0  0  0  0  0  0  0
   -0.6160   -7.4175   -4.0596 C   0  0  0  0  0  0  0  0  0  0  0  0
   -0.5765   -4.7800   -3.0922 C   0  0  0  0  0  0  0  0  0  0  0  0
    1.8560   -2.7497   -2.6302 C   0  0  0  0  0  0  0  0  0  0  0  0
    2.9415   -1.9536   -1.5284 S   0  0  0  0  0  0  0  0  0  0  0  0
    4.3619   -2.5846   -2.3111 C   0  0  0  0  0  0  0  0  0  0  0  0
    3.9952   -3.4164   -3.3769 C   0  0  0  0  0  0  0  0  0  0  0  0
    2.5840   -3.4545   -3.5981 C   0  0  0  0  0  0  0  0  0  0  0  0
    2.1006   -4.1065   -4.7528 C   0  0  0  0  0  0  0  0  0  0  0  0
    2.9395   -4.8192   -5.5592 C   0  0  0  0  0  0  0  0  0  0  0  0
    2.4537   -5.5189   -6.7888 C   0  0  0  0  0  0  0  0  0  0  0  0
    4.3238   -4.9270   -5.2189 C   0  0  0  0  0  0  0  0  0  0  0  0
    5.0485   -5.7402   -6.0396 O   0  0  0  0  0  0  0  0  0  0  0  0
    6.4250   -5.8819   -5.7930 C   0  0  0  0  0  0  0  0  0  0  0  0
    4.8414   -4.2274   -4.1614 C   0  0  0  0  0  0  0  0  0  0  0  0
    5.6178   -2.1997   -1.7903 C   0  0  0  0  0  0  0  0  0  0  0  0
    5.6861   -1.7846   -0.1058 S   0  0  0  0  0  0  0  0  0  0  0  0
    7.3678   -1.3507   -0.1640 C   0  0  0  0  0  0  0  0  0  0  0  0
    7.8606   -1.5388   -1.4660 C   0  0  0  0  0  0  0  0  0  0  0  0
    6.8643   -1.9811   -2.3903 C   0  0  0  0  0  0  0  0  0  0  0  0
    7.1836   -2.0431   -3.7624 C   0  0  0  0  0  0  0  0  0  0  0  0
    8.4480   -1.7822   -4.2030 C   0  0  0  0  0  0  0  0  0  0  0  0
    8.8112   -1.8475   -5.6524 C   0  0  0  0  0  0  0  0  0  0  0  0
    9.4588   -1.4151   -3.2635 C   0  0  0  0  0  0  0  0  0  0  0  0
   10.6873   -1.1953   -3.8109 O   0  0  0  0  0  0  0  0  0  0  0  0
   11.7384   -0.8075   -2.9620 C   0  0  0  0  0  0  0  0  0  0  0  0
    9.1634   -1.2726   -1.9332 C   0  0  0  0  0  0  0  0  0  0  0  0
    8.0159   -0.9008    1.0108 C   0  0  0  0  0  0  0  0  0  0  0  0
    9.7403   -1.0426    1.2175 S   0  0  0  0  0  0  0  0  0  0  0  0
    9.6923   -0.4066    2.8038 C   0  0  0  0  0  0  0  0  0  0  0  0
    8.4135   -0.0779    3.1891 C   0  0  0  0  0  0  0  0  0  0  0  0
    7.4455   -0.3524    2.1688 C   0  0  0  0  0  0  0  0  0  0  0  0
    6.1010   -0.0050    2.4157 C   0  0  0  0  0  0  0  0  0  0  0  0
    5.7189    0.5331    3.6083 C   0  0  0  0  0  0  0  0  0  0  0  0
    4.2958    0.8970    3.8810 C   0  0  0  0  0  0  0  0  0  0  0  0
    6.6888    0.7573    4.6393 C   0  0  0  0  0  0  0  0  0  0  0  0
    6.1711    1.2764    5.7886 O   0  0  0  0  0  0  0  0  0  0  0  0
    7.0480    1.5668    6.8463 C   0  0  0  0  0  0  0  0  0  0  0  0
    8.0080    0.4730    4.4297 C   0  0  0  0  0  0  0  0  0  0  0  0
   -5.2012    7.4108    7.2305 H   0  0  0  0  0  0  0  0  0  0  0  0
   -3.3016    5.6344    7.0920 H   0  0  0  0  0  0  0  0  0  0  0  0
   -3.3834    3.1833    7.4292 H   0  0  0  0  0  0  0  0  0  0  0  0
   -1.4534    2.4619    8.7735 H   0  0  0  0  0  0  0  0  0  0  0  0
    3.0744    0.6847    7.9624 H   0  0  0  0  0  0  0  0  0  0  0  0
    2.7956    1.6067    6.4750 H   0  0  0  0  0  0  0  0  0  0  0  0
    2.2258   -0.8430    6.1924 H   0  0  0  0  0  0  0  0  0  0  0  0
    0.8045    0.1759    5.9608 H   0  0  0  0  0  0  0  0  0  0  0  0
    1.0278   -0.6930    7.4832 H   0  0  0  0  0  0  0  0  0  0  0  0
   -0.8196    3.5422    4.0173 H   0  0  0  0  0  0  0  0  0  0  0  0
   -8.2598    4.9162    4.0512 H   0  0  0  0  0  0  0  0  0  0  0  0
  -10.1863    5.5544    2.6613 H   0  0  0  0  0  0  0  0  0  0  0  0
  -11.2392    5.6100   -2.1451 H   0  0  0  0  0  0  0  0  0  0  0  0
   -9.4837    5.8579   -2.1754 H   0  0  0  0  0  0  0  0  0  0  0  0
  -10.0726    3.4236   -2.4312 H   0  0  0  0  0  0  0  0  0  0  0  0
   -9.1621    3.6993   -0.9447 H   0  0  0  0  0  0  0  0  0  0  0  0
  -10.9134    3.4733   -0.8752 H   0  0  0  0  0  0  0  0  0  0  0  0
   -5.7030    5.3692    0.6460 H   0  0  0  0  0  0  0  0  0  0  0  0
   -5.7633    2.9414    0.9580 H   0  0  0  0  0  0  0  0  0  0  0  0
   -6.5543    1.3101    0.0079 H   0  0  0  0  0  0  0  0  0  0  0  0
   -8.6771   -0.4296   -2.1854 H   0  0  0  0  0  0  0  0  0  0  0  0
   -8.2311    1.0862   -2.9455 H   0  0  0  0  0  0  0  0  0  0  0  0
   -8.5616    1.0442   -1.2038 H   0  0  0  0  0  0  0  0  0  0  0  0
   -6.8948   -2.0062   -5.5238 H   0  0  0  0  0  0  0  0  0  0  0  0
   -5.2778   -1.3083   -5.2564 H   0  0  0  0  0  0  0  0  0  0  0  0
   -5.7833   -2.7623   -4.3535 H   0  0  0  0  0  0  0  0  0  0  0  0
   -4.1311   -1.5598   -3.2336 H   0  0  0  0  0  0  0  0  0  0  0  0
   -3.9435   -3.3154   -1.8278 H   0  0  0  0  0  0  0  0  0  0  0  0
   -4.3820   -6.1323   -3.8362 H   0  0  0  0  0  0  0  0  0  0  0  0
   -4.0411   -6.7453   -2.2297 H   0  0  0  0  0  0  0  0  0  0  0  0
   -5.0656   -5.3103   -2.4187 H   0  0  0  0  0  0  0  0  0  0  0  0
   -0.9095   -8.4113   -4.3942 H   0  0  0  0  0  0  0  0  0  0  0  0
    0.1105   -7.5095   -3.2458 H   0  0  0  0  0  0  0  0  0  0  0  0
   -0.1557   -6.8747   -4.8916 H   0  0  0  0  0  0  0  0  0  0  0  0
    0.3786   -5.2091   -3.3401 H   0  0  0  0  0  0  0  0  0  0  0  0
    1.0578   -4.0096   -5.0130 H   0  0  0  0  0  0  0  0  0  0  0  0
    3.0266   -5.1935   -7.6554 H   0  0  0  0  0  0  0  0  0  0  0  0
    1.3998   -5.3150   -6.9602 H   0  0  0  0  0  0  0  0  0  0  0  0
    2.6011   -6.5939   -6.6905 H   0  0  0  0  0  0  0  0  0  0  0  0
    6.7948   -6.5555   -6.5646 H   0  0  0  0  0  0  0  0  0  0  0  0
    6.6146   -6.3206   -4.8080 H   0  0  0  0  0  0  0  0  0  0  0  0
    6.9493   -4.9235   -5.8661 H   0  0  0  0  0  0  0  0  0  0  0  0
    5.8819   -4.2950   -3.8929 H   0  0  0  0  0  0  0  0  0  0  0  0
    6.4032   -2.2649   -4.4731 H   0  0  0  0  0  0  0  0  0  0  0  0
    9.5896   -2.5931   -5.8096 H   0  0  0  0  0  0  0  0  0  0  0  0
    7.9443   -2.0988   -6.2582 H   0  0  0  0  0  0  0  0  0  0  0  0
    9.2113   -0.8899   -5.9812 H   0  0  0  0  0  0  0  0  0  0  0  0
   11.9341   -1.5624   -2.1937 H   0  0  0  0  0  0  0  0  0  0  0  0
   11.5316    0.1529   -2.4788 H   0  0  0  0  0  0  0  0  0  0  0  0
   12.6132   -0.7076   -3.6028 H   0  0  0  0  0  0  0  0  0  0  0  0
    9.9092   -0.9403   -1.2327 H   0  0  0  0  0  0  0  0  0  0  0  0
   10.6028   -0.3075    3.3596 H   0  0  0  0  0  0  0  0  0  0  0  0
    5.3570   -0.1483    1.6493 H   0  0  0  0  0  0  0  0  0  0  0  0
    3.9098    0.2874    4.6963 H   0  0  0  0  0  0  0  0  0  0  0  0
    4.2222    1.9380    4.1901 H   0  0  0  0  0  0  0  0  0  0  0  0
    3.6798    0.7408    3.0001 H   0  0  0  0  0  0  0  0  0  0  0  0
    7.5533    0.6653    7.2091 H   0  0  0  0  0  0  0  0  0  0  0  0
    7.7988    2.3083    6.5541 H   0  0  0  0  0  0  0  0  0  0  0  0
    6.4274    1.9775    7.6414 H   0  0  0  0  0  0  0  0  0  0  0  0
    8.7646    0.6545    5.1762 H   0  0  0  0  0  0  0  0  0  0  0  0
  1  2  2  0  0  0  0
  2  3  1  0  0  0  0
  3  4  2  0  0  0  0
  4  5  1  0  0  0  0
  5  6  2  0  0  0  0
  6  7  1  0  0  0  0
  7  8  2  0  0  0  0
  8  9  1  0  0  0  0
  9 10  1  0  0  0  0
 10 11  1  0  0  0  0
  8 12  1  0  0  0  0
 12 13  1  0  0  0  0
 12 14  2  0  0  0  0
  4 15  1  0  0  0  0
 15 16  2  0  0  0  0
 16 17  1  0  0  0  0
 17 18  1  0  0  0  0
 18 19  2  0  0  0  0
 19 20  1  0  0  0  0
 20 21  2  0  0  0  0
 21 22  1  0  0  0  0
 22 23  1  0  0  0  0
 23 24  1  0  0  0  0
 21 25  1  0  0  0  0
 25 26  2  0  0  0  0
 25 27  1  0  0  0  0
 17 28  2  0  0  0  0
 28 29  1  0  0  0  0
 16 30  1  0  0  0  0
 30 31  2  0  0  0  0
 31 32  1  0  0  0  0
 31 33  1  0  0  0  0
 33 34  1  0  0  0  0
 34 35  1  0  0  0  0
 35 36  2  0  0  0  0
 36 37  1  0  0  0  0
 37 38  1  0  0  0  0
 38 39  2  0  0  0  0
 39 40  1  0  0  0  0
 39 41  1  0  0  0  0
 41 42  1  0  0  0  0
 42 43  1  0  0  0  0
 41 44  2  0  0  0  0
 35 45  1  0  0  0  0
 45 46  1  0  0  0  0
 46 47  1  0  0  0  0
 47 48  2  0  0  0  0
 48 49  1  0  0  0  0
 49 50  1  0  0  0  0
 50 51  2  0  0  0  0
 51 52  1  0  0  0  0
 51 53  1  0  0  0  0
 53 54  1  0  0  0  0
 54 55  1  0  0  0  0
 53 56  2  0  0  0  0
 47 57  1  0  0  0  0
 57 58  1  0  0  0  0
 58 59  1  0  0  0  0
 59 60  2  0  0  0  0
 60 61  1  0  0  0  0
 61 62  1  0  0  0  0
 62 63  2  0  0  0  0
 63 64  1  0  0  0  0
 63 65  1  0  0  0  0
 65 66  1  0  0  0  0
 66 67  1  0  0  0  0
 65 68  2  0  0  0  0
 59 69  1  0  0  0  0
 69 70  1  0  0  0  0
 70 71  1  0  0  0  0
 71 72  2  0  0  0  0
 72 73  1  0  0  0  0
 73 74  1  0  0  0  0
 74 75  2  0  0  0  0
 75 76  1  0  0  0  0
 75 77  1  0  0  0  0
 77 78  1  0  0  0  0
 78 79  1  0  0  0  0
 77 80  2  0  0  0  0
 71 81  1  0  0  0  0
 81 82  1  0  0  0  0
 82 83  1  0  0  0  0
 83 84  2  0  0  0  0
 84 85  1  0  0  0  0
 85 86  1  0  0  0  0
 86 87  2  0  0  0  0
 87 88  1  0  0  0  0
 87 89  1  0  0  0  0
 89 90  1  0  0  0  0
 90 91  1  0  0  0  0
 89 92  2  0  0  0  0
 29  1  1  0  0  0  0
 37 33  2  0  0  0  0
 49 45  2  0  0  0  0
 61 57  2  0  0  0  0
 73 69  2  0  0  0  0
 85 81  2  0  0  0  0
 28  3  1  0  0  0  0
 44 36  1  0  0  0  0
 56 48  1  0  0  0  0
 68 60  1  0  0  0  0
 80 72  1  0  0  0  0
 92 84  1  0  0  0  0
 14  5  1  0  0  0  0
 32 15  1  0  0  0  0
 26 18  1  0  0  0  0
  1 93  1  0  0  0  0
  2 94  1  0  0  0  0
  6 95  1  0  0  0  0
  7 96  1  0  0  0  0
 10 97  1  0  0  0  0
 10 98  1  0  0  0  0
 11 99  1  0  0  0  0
 11100  1  0  0  0  0
 11101  1  0  0  0  0
 14102  1  0  0  0  0
 19103  1  0  0  0  0
 20104  1  0  0  0  0
 23105  1  0  0  0  0
 23106  1  0  0  0  0
 24107  1  0  0  0  0
 24108  1  0  0  0  0
 24109  1  0  0  0  0
 26110  1  0  0  0  0
 30111  1  0  0  0  0
 38112  1  0  0  0  0
 40113  1  0  0  0  0
 40114  1  0  0  0  0
 40115  1  0  0  0  0
 43116  1  0  0  0  0
 43117  1  0  0  0  0
 43118  1  0  0  0  0
 44119  1  0  0  0  0
 50120  1  0  0  0  0
 52121  1  0  0  0  0
 52122  1  0  0  0  0
 52123  1  0  0  0  0
 55124  1  0  0  0  0
 55125  1  0  0  0  0
 55126  1  0  0  0  0
 56127  1  0  0  0  0
 62128  1  0  0  0  0
 64129  1  0  0  0  0
 64130  1  0  0  0  0
 64131  1  0  0  0  0
 67132  1  0  0  0  0
 67133  1  0  0  0  0
 67134  1  0  0  0  0
 68135  1  0  0  0  0
 74136  1  0  0  0  0
 76137  1  0  0  0  0
 76138  1  0  0  0  0
 76139  1  0  0  0  0
 79140  1  0  0  0  0
 79141  1  0  0  0  0
 79142  1  0  0  0  0
 80143  1  0  0  0  0
 83144  1  0  0  0  0
 86145  1  0  0  0  0
 88146  1  0  0  0  0
 88147  1  0  0  0  0
 88148  1  0  0  0  0
 91149  1  0  0  0  0
 91150  1  0  0  0  0
 91151  1  0  0  0  0
 92152  1  0  0  0  0
M  END
