
  xtb     03032212283D
 energy: -470.572144826489 gnorm: 0.000554982229 xtb: 6.4.1 (unknown)
272298  0     0  0            999 V2000
  -12.3515   -9.9936   12.4074 C   0  0  0  0  0  0  0  0  0  0  0  0
  -11.9066   -8.8686   11.8125 C   0  0  0  0  0  0  0  0  0  0  0  0
  -11.6623   -9.0377   10.4175 C   0  0  0  0  0  0  0  0  0  0  0  0
  -11.2023   -8.0886    9.4947 C   0  0  0  0  0  0  0  0  0  0  0  0
  -10.9048   -6.6909    9.8378 C   0  0  0  0  0  0  0  0  0  0  0  0
  -11.8308   -5.8695   10.4770 C   0  0  0  0  0  0  0  0  0  0  0  0
  -11.5476   -4.5388   10.7018 C   0  0  0  0  0  0  0  0  0  0  0  0
  -10.3435   -3.9645   10.2915 C   0  0  0  0  0  0  0  0  0  0  0  0
  -10.1708   -2.2259   10.5517 S   0  0  0  0  0  0  0  0  0  0  0  0
   -8.3781   -1.9235   10.7700 C   0  0  0  0  0  0  0  0  0  0  0  0
   -7.8046   -2.6968   11.9394 C   0  0  0  0  0  0  0  0  0  0  0  0
   -9.4288   -4.7980    9.6557 C   0  0  0  0  0  0  0  0  0  0  0  0
   -8.2448   -4.3290    9.2031 F   0  0  0  0  0  0  0  0  0  0  0  0
   -9.6896   -6.1365    9.4479 C   0  0  0  0  0  0  0  0  0  0  0  0
  -11.0282   -8.5277    8.1911 C   0  0  0  0  0  0  0  0  0  0  0  0
  -11.2852   -9.8525    7.7650 C   0  0  0  0  0  0  0  0  0  0  0  0
  -11.7558  -10.8008    8.6892 C   0  0  0  0  0  0  0  0  0  0  0  0
  -12.0438  -12.1738    8.2599 C   0  0  0  0  0  0  0  0  0  0  0  0
  -11.5267  -13.2761    8.9376 C   0  0  0  0  0  0  0  0  0  0  0  0
  -11.7446  -14.5538    8.4679 C   0  0  0  0  0  0  0  0  0  0  0  0
  -12.4961  -14.7885    7.3178 C   0  0  0  0  0  0  0  0  0  0  0  0
  -12.7058  -16.4697    6.8103 S   0  0  0  0  0  0  0  0  0  0  0  0
  -12.6027  -16.3979    4.9823 C   0  0  0  0  0  0  0  0  0  0  0  0
  -11.3070  -15.7731    4.5050 C   0  0  0  0  0  0  0  0  0  0  0  0
  -13.0549  -13.6822    6.6851 C   0  0  0  0  0  0  0  0  0  0  0  0
  -12.8260  -12.3970    7.1300 C   0  0  0  0  0  0  0  0  0  0  0  0
  -13.8417  -13.8275    5.5937 F   0  0  0  0  0  0  0  0  0  0  0  0
  -11.9220  -10.3661    9.9975 C   0  0  0  0  0  0  0  0  0  0  0  0
  -12.4974  -11.3389   11.3279 S   0  0  0  0  0  0  0  0  0  0  0  0
  -10.9621  -10.0436    6.3956 C   0  0  0  0  0  0  0  0  0  0  0  0
  -10.5225   -8.9109    5.7713 C   0  0  0  0  0  0  0  0  0  0  0  0
  -10.4918   -7.5356    6.8670 S   0  0  0  0  0  0  0  0  0  0  0  0
  -10.0226   -8.6857    4.4592 C   0  0  0  0  0  0  0  0  0  0  0  0
   -9.1483   -7.2157    4.2106 S   0  0  0  0  0  0  0  0  0  0  0  0
   -8.7652   -7.6049    2.5657 C   0  0  0  0  0  0  0  0  0  0  0  0
   -9.3216   -8.8386    2.2150 C   0  0  0  0  0  0  0  0  0  0  0  0
  -10.0470   -9.4488    3.2887 C   0  0  0  0  0  0  0  0  0  0  0  0
  -10.6971  -10.6793    3.0550 C   0  0  0  0  0  0  0  0  0  0  0  0
  -10.6102  -11.3006    1.8445 C   0  0  0  0  0  0  0  0  0  0  0  0
  -11.2915  -12.6029    1.5739 C   0  0  0  0  0  0  0  0  0  0  0  0
   -9.8535  -10.6985    0.7885 C   0  0  0  0  0  0  0  0  0  0  0  0
   -9.8270  -11.4143   -0.3649 O   0  0  0  0  0  0  0  0  0  0  0  0
   -9.1166  -10.8935   -1.4626 C   0  0  0  0  0  0  0  0  0  0  0  0
   -9.2351   -9.4891    0.9687 C   0  0  0  0  0  0  0  0  0  0  0  0
   -7.9373   -6.6841    1.8749 C   0  0  0  0  0  0  0  0  0  0  0  0
   -7.5371   -5.4803    2.3915 C   0  0  0  0  0  0  0  0  0  0  0  0
   -6.6188   -4.7767    1.5866 C   0  0  0  0  0  0  0  0  0  0  0  0
   -6.0192   -3.5352    1.8600 C   0  0  0  0  0  0  0  0  0  0  0  0
   -6.2687   -2.8364    3.1266 C   0  0  0  0  0  0  0  0  0  0  0  0
   -6.1636   -3.5076    4.3461 C   0  0  0  0  0  0  0  0  0  0  0  0
   -6.4416   -2.8642    5.5314 C   0  0  0  0  0  0  0  0  0  0  0  0
   -6.8216   -1.5219    5.5576 C   0  0  0  0  0  0  0  0  0  0  0  0
   -7.1476   -0.8137    7.1397 S   0  0  0  0  0  0  0  0  0  0  0  0
   -8.4302    0.4592    6.8038 C   0  0  0  0  0  0  0  0  0  0  0  0
   -9.2014    0.7291    8.0806 C   0  0  0  0  0  0  0  0  0  0  0  0
   -6.8688   -0.8505    4.3398 C   0  0  0  0  0  0  0  0  0  0  0  0
   -7.1747    0.4677    4.2827 F   0  0  0  0  0  0  0  0  0  0  0  0
   -6.6131   -1.4892    3.1428 C   0  0  0  0  0  0  0  0  0  0  0  0
   -5.1661   -3.0402    0.8880 C   0  0  0  0  0  0  0  0  0  0  0  0
   -4.8790   -3.7219   -0.3220 C   0  0  0  0  0  0  0  0  0  0  0  0
   -5.4915   -4.9594   -0.5968 C   0  0  0  0  0  0  0  0  0  0  0  0
   -5.2503   -5.6719   -1.8562 C   0  0  0  0  0  0  0  0  0  0  0  0
   -4.9230   -7.0271   -1.8706 C   0  0  0  0  0  0  0  0  0  0  0  0
   -4.7060   -7.6844   -3.0613 C   0  0  0  0  0  0  0  0  0  0  0  0
   -4.8196   -7.0285   -4.2875 C   0  0  0  0  0  0  0  0  0  0  0  0
   -4.5593   -7.9965   -5.7390 S   0  0  0  0  0  0  0  0  0  0  0  0
   -3.9023   -6.8012   -6.9710 C   0  0  0  0  0  0  0  0  0  0  0  0
   -3.1392   -7.5672   -8.0335 C   0  0  0  0  0  0  0  0  0  0  0  0
   -5.1754   -5.6831   -4.2589 C   0  0  0  0  0  0  0  0  0  0  0  0
   -5.3727   -5.0070   -3.0722 C   0  0  0  0  0  0  0  0  0  0  0  0
   -5.3571   -4.9857   -5.4036 F   0  0  0  0  0  0  0  0  0  0  0  0
   -6.3356   -5.4630    0.3796 C   0  0  0  0  0  0  0  0  0  0  0  0
   -7.2137   -6.9740    0.3018 S   0  0  0  0  0  0  0  0  0  0  0  0
   -3.8948   -3.0441   -1.0862 C   0  0  0  0  0  0  0  0  0  0  0  0
   -3.4500   -1.8936   -0.5059 C   0  0  0  0  0  0  0  0  0  0  0  0
   -4.2439   -1.5697    1.0253 S   0  0  0  0  0  0  0  0  0  0  0  0
   -2.4383   -0.9918   -0.9442 C   0  0  0  0  0  0  0  0  0  0  0  0
   -2.0130    0.1164   -0.2749 C   0  0  0  0  0  0  0  0  0  0  0  0
   -0.9456    0.7945   -0.9094 C   0  0  0  0  0  0  0  0  0  0  0  0
   -0.2664    1.9326   -0.4461 C   0  0  0  0  0  0  0  0  0  0  0  0
   -0.6223    2.5207    0.8537 C   0  0  0  0  0  0  0  0  0  0  0  0
   -1.0096    3.8528    0.9646 C   0  0  0  0  0  0  0  0  0  0  0  0
   -1.4243    4.3591    2.1817 C   0  0  0  0  0  0  0  0  0  0  0  0
   -1.4492    3.5571    3.3133 C   0  0  0  0  0  0  0  0  0  0  0  0
   -2.0606    4.1955    4.8631 S   0  0  0  0  0  0  0  0  0  0  0  0
   -3.8539    3.9986    4.5318 C   0  0  0  0  0  0  0  0  0  0  0  0
   -4.2728    2.5440    4.4621 C   0  0  0  0  0  0  0  0  0  0  0  0
   -1.0077    2.2446    3.2041 C   0  0  0  0  0  0  0  0  0  0  0  0
   -0.9865    1.4448    4.2836 F   0  0  0  0  0  0  0  0  0  0  0  0
   -0.6075    1.7193    1.9912 C   0  0  0  0  0  0  0  0  0  0  0  0
    0.7410    2.4286   -1.2546 C   0  0  0  0  0  0  0  0  0  0  0  0
    1.1106    1.8062   -2.4728 C   0  0  0  0  0  0  0  0  0  0  0  0
    0.4569    0.6440   -2.9194 C   0  0  0  0  0  0  0  0  0  0  0  0
    0.9177   -0.0235   -4.1443 C   0  0  0  0  0  0  0  0  0  0  0  0
    2.2677   -0.3421   -4.2959 C   0  0  0  0  0  0  0  0  0  0  0  0
    2.7341   -0.8857   -5.4724 C   0  0  0  0  0  0  0  0  0  0  0  0
    1.8769   -1.1422   -6.5398 C   0  0  0  0  0  0  0  0  0  0  0  0
    2.5893   -1.8264   -8.0107 S   0  0  0  0  0  0  0  0  0  0  0  0
    1.7752   -0.8905   -9.3581 C   0  0  0  0  0  0  0  0  0  0  0  0
    2.0293    0.5996   -9.2539 C   0  0  0  0  0  0  0  0  0  0  0  0
    0.5228   -0.8847   -6.3494 C   0  0  0  0  0  0  0  0  0  0  0  0
    0.0427   -0.3248   -5.1809 C   0  0  0  0  0  0  0  0  0  0  0  0
   -0.3728   -1.1666   -7.3190 F   0  0  0  0  0  0  0  0  0  0  0  0
   -0.5812    0.1761   -2.1324 C   0  0  0  0  0  0  0  0  0  0  0  0
   -1.5496   -1.2461   -2.4352 S   0  0  0  0  0  0  0  0  0  0  0  0
    2.1793    2.4834   -3.1028 C   0  0  0  0  0  0  0  0  0  0  0  0
    2.6538    3.5487   -2.3925 C   0  0  0  0  0  0  0  0  0  0  0  0
    1.7605    3.8021   -0.9078 S   0  0  0  0  0  0  0  0  0  0  0  0
    3.7960    4.3270   -2.7513 C   0  0  0  0  0  0  0  0  0  0  0  0
    4.5372    4.1547   -3.8847 C   0  0  0  0  0  0  0  0  0  0  0  0
    5.6977    4.9602   -3.9378 C   0  0  0  0  0  0  0  0  0  0  0  0
    6.6931    4.9564   -4.9308 C   0  0  0  0  0  0  0  0  0  0  0  0
    6.6015    4.0162   -6.0552 C   0  0  0  0  0  0  0  0  0  0  0  0
    6.3683    2.6623   -5.8232 C   0  0  0  0  0  0  0  0  0  0  0  0
    6.1924    1.7730   -6.8652 C   0  0  0  0  0  0  0  0  0  0  0  0
    6.2526    2.2057   -8.1850 C   0  0  0  0  0  0  0  0  0  0  0  0
    5.9743    1.2031   -9.6060 S   0  0  0  0  0  0  0  0  0  0  0  0
    5.9330   -0.5079   -8.9664 C   0  0  0  0  0  0  0  0  0  0  0  0
    7.3078   -1.0157   -8.5774 C   0  0  0  0  0  0  0  0  0  0  0  0
    6.5229    3.5588   -8.4035 C   0  0  0  0  0  0  0  0  0  0  0  0
    6.5955    4.0112   -9.6708 F   0  0  0  0  0  0  0  0  0  0  0  0
    6.6981    4.4557   -7.3733 C   0  0  0  0  0  0  0  0  0  0  0  0
    7.7320    5.8574   -4.7647 C   0  0  0  0  0  0  0  0  0  0  0  0
    7.8272    6.7189   -3.6418 C   0  0  0  0  0  0  0  0  0  0  0  0
    6.8511    6.6928   -2.6313 C   0  0  0  0  0  0  0  0  0  0  0  0
    6.9774    7.5340   -1.4340 C   0  0  0  0  0  0  0  0  0  0  0  0
    8.1434    7.5102   -0.6725 C   0  0  0  0  0  0  0  0  0  0  0  0
    8.2781    8.3030    0.4496 C   0  0  0  0  0  0  0  0  0  0  0  0
    7.2493    9.1471    0.8523 C   0  0  0  0  0  0  0  0  0  0  0  0
    7.3411   10.2327    2.2407 S   0  0  0  0  0  0  0  0  0  0  0  0
    8.4584    9.3501    3.3875 C   0  0  0  0  0  0  0  0  0  0  0  0
    7.8737    8.0300    3.8495 C   0  0  0  0  0  0  0  0  0  0  0  0
    6.0872    9.1615    0.0804 C   0  0  0  0  0  0  0  0  0  0  0  0
    5.9376    8.3704   -1.0382 C   0  0  0  0  0  0  0  0  0  0  0  0
    5.0740    9.9745    0.4320 F   0  0  0  0  0  0  0  0  0  0  0  0
    5.7937    5.8170   -2.8136 C   0  0  0  0  0  0  0  0  0  0  0  0
    4.4726    5.5545   -1.7022 S   0  0  0  0  0  0  0  0  0  0  0  0
    8.9807    7.5373   -3.7023 C   0  0  0  0  0  0  0  0  0  0  0  0
    9.7669    7.2993   -4.7921 C   0  0  0  0  0  0  0  0  0  0  0  0
    9.1013    6.0534   -5.8274 S   0  0  0  0  0  0  0  0  0  0  0  0
   11.0083    7.9377   -5.0968 C   0  0  0  0  0  0  0  0  0  0  0  0
   11.5904    8.9540   -4.3970 C   0  0  0  0  0  0  0  0  0  0  0  0
   12.8466    9.3550   -4.9155 C   0  0  0  0  0  0  0  0  0  0  0  0
   13.7145   10.3306   -4.4008 C   0  0  0  0  0  0  0  0  0  0  0  0
   13.3150   11.1580   -3.2553 C   0  0  0  0  0  0  0  0  0  0  0  0
   12.1067   11.8535   -3.2792 C   0  0  0  0  0  0  0  0  0  0  0  0
   11.7086   12.6075   -2.1961 C   0  0  0  0  0  0  0  0  0  0  0  0
   12.4953   12.6955   -1.0505 C   0  0  0  0  0  0  0  0  0  0  0  0
   11.9062   13.7064    0.2807 S   0  0  0  0  0  0  0  0  0  0  0  0
   12.1407   12.6265    1.7399 C   0  0  0  0  0  0  0  0  0  0  0  0
   11.3306   11.3497    1.6309 C   0  0  0  0  0  0  0  0  0  0  0  0
   13.7152   12.0263   -1.0547 C   0  0  0  0  0  0  0  0  0  0  0  0
   14.5411   12.0969    0.0112 F   0  0  0  0  0  0  0  0  0  0  0  0
   14.1244   11.2623   -2.1296 C   0  0  0  0  0  0  0  0  0  0  0  0
   14.9376   10.4729   -5.0381 C   0  0  0  0  0  0  0  0  0  0  0  0
   15.3125    9.7081   -6.1703 C   0  0  0  0  0  0  0  0  0  0  0  0
   14.4399    8.7408   -6.6902 C   0  0  0  0  0  0  0  0  0  0  0  0
   14.8017    7.9114   -7.8470 C   0  0  0  0  0  0  0  0  0  0  0  0
   13.9513    7.8061   -8.9456 C   0  0  0  0  0  0  0  0  0  0  0  0
   14.2866    7.0070  -10.0177 C   0  0  0  0  0  0  0  0  0  0  0  0
   15.4771    6.2842  -10.0380 C   0  0  0  0  0  0  0  0  0  0  0  0
   15.8283    5.3214  -11.4814 S   0  0  0  0  0  0  0  0  0  0  0  0
   16.4706    3.7483  -10.7977 C   0  0  0  0  0  0  0  0  0  0  0  0
   15.4690    3.0845   -9.8743 C   0  0  0  0  0  0  0  0  0  0  0  0
   16.3259    6.4155   -8.9433 C   0  0  0  0  0  0  0  0  0  0  0  0
   15.9984    7.2026   -7.8580 C   0  0  0  0  0  0  0  0  0  0  0  0
   17.5128    5.7696   -8.9052 F   0  0  0  0  0  0  0  0  0  0  0  0
   13.2195    8.5914   -6.0479 C   0  0  0  0  0  0  0  0  0  0  0  0
   11.9881    7.4236   -6.4547 S   0  0  0  0  0  0  0  0  0  0  0  0
   16.5923   10.1009   -6.6646 C   0  0  0  0  0  0  0  0  0  0  0  0
   17.1534   11.0913   -5.9423 C   0  0  0  0  0  0  0  0  0  0  0  0
   16.1785   11.6237   -4.6155 S   0  0  0  0  0  0  0  0  0  0  0  0
  -12.6093  -10.1372   13.4385 H   0  0  0  0  0  0  0  0  0  0  0  0
  -11.7428   -7.9411   12.3305 H   0  0  0  0  0  0  0  0  0  0  0  0
  -12.7870   -6.2716   10.7758 H   0  0  0  0  0  0  0  0  0  0  0  0
  -12.2709   -3.9043   11.1905 H   0  0  0  0  0  0  0  0  0  0  0  0
   -7.8621   -2.1392    9.8370 H   0  0  0  0  0  0  0  0  0  0  0  0
   -8.3362   -0.8499   10.9551 H   0  0  0  0  0  0  0  0  0  0  0  0
   -6.7628   -2.4178   12.0823 H   0  0  0  0  0  0  0  0  0  0  0  0
   -7.8489   -3.7688   11.7592 H   0  0  0  0  0  0  0  0  0  0  0  0
   -8.3552   -2.4759   12.8518 H   0  0  0  0  0  0  0  0  0  0  0  0
   -8.9310   -6.7356    8.9691 H   0  0  0  0  0  0  0  0  0  0  0  0
  -10.9199  -13.1278    9.8171 H   0  0  0  0  0  0  0  0  0  0  0  0
  -11.3224  -15.4030    8.9820 H   0  0  0  0  0  0  0  0  0  0  0  0
  -13.4749  -15.8738    4.5979 H   0  0  0  0  0  0  0  0  0  0  0  0
  -12.6626  -17.4464    4.6905 H   0  0  0  0  0  0  0  0  0  0  0  0
  -11.2445  -14.7279    4.8026 H   0  0  0  0  0  0  0  0  0  0  0  0
  -11.2547  -15.8243    3.4192 H   0  0  0  0  0  0  0  0  0  0  0  0
  -10.4519  -16.3006    4.9222 H   0  0  0  0  0  0  0  0  0  0  0  0
  -13.2891  -11.5754    6.6050 H   0  0  0  0  0  0  0  0  0  0  0  0
  -10.9980  -11.0060    5.9216 H   0  0  0  0  0  0  0  0  0  0  0  0
  -11.2875  -11.1244    3.8391 H   0  0  0  0  0  0  0  0  0  0  0  0
  -11.8669  -12.9272    2.4366 H   0  0  0  0  0  0  0  0  0  0  0  0
  -10.5535  -13.3646    1.3262 H   0  0  0  0  0  0  0  0  0  0  0  0
  -11.9548  -12.5055    0.7162 H   0  0  0  0  0  0  0  0  0  0  0  0
   -9.5330   -9.9367   -1.7927 H   0  0  0  0  0  0  0  0  0  0  0  0
   -9.2243  -11.6284   -2.2585 H   0  0  0  0  0  0  0  0  0  0  0  0
   -8.0554  -10.7626   -1.2290 H   0  0  0  0  0  0  0  0  0  0  0  0
   -8.6838   -9.0139    0.1751 H   0  0  0  0  0  0  0  0  0  0  0  0
   -7.9050   -5.1079    3.3305 H   0  0  0  0  0  0  0  0  0  0  0  0
   -5.8510   -4.5403    4.3618 H   0  0  0  0  0  0  0  0  0  0  0  0
   -6.3769   -3.3935    6.4694 H   0  0  0  0  0  0  0  0  0  0  0  0
   -7.9348    1.3605    6.4454 H   0  0  0  0  0  0  0  0  0  0  0  0
   -9.0821    0.0614    6.0277 H   0  0  0  0  0  0  0  0  0  0  0  0
   -9.9659    1.4803    7.8946 H   0  0  0  0  0  0  0  0  0  0  0  0
   -9.6841   -0.1772    8.4389 H   0  0  0  0  0  0  0  0  0  0  0  0
   -8.5345    1.0974    8.8571 H   0  0  0  0  0  0  0  0  0  0  0  0
   -6.6978   -0.9227    2.2285 H   0  0  0  0  0  0  0  0  0  0  0  0
   -4.8093   -7.5604   -0.9398 H   0  0  0  0  0  0  0  0  0  0  0  0
   -4.4388   -8.7297   -3.0669 H   0  0  0  0  0  0  0  0  0  0  0  0
   -3.2492   -6.1130   -6.4366 H   0  0  0  0  0  0  0  0  0  0  0  0
   -4.7398   -6.2565   -7.4040 H   0  0  0  0  0  0  0  0  0  0  0  0
   -3.7939   -8.2737   -8.5389 H   0  0  0  0  0  0  0  0  0  0  0  0
   -2.3136   -8.1189   -7.5895 H   0  0  0  0  0  0  0  0  0  0  0  0
   -2.7409   -6.8723   -8.7696 H   0  0  0  0  0  0  0  0  0  0  0  0
   -5.6612   -3.9678   -3.1114 H   0  0  0  0  0  0  0  0  0  0  0  0
   -3.5019   -3.4104   -2.0181 H   0  0  0  0  0  0  0  0  0  0  0  0
   -2.4564    0.4371    0.6507 H   0  0  0  0  0  0  0  0  0  0  0  0
   -1.0097    4.4845    0.0895 H   0  0  0  0  0  0  0  0  0  0  0  0
   -1.7429    5.3869    2.2651 H   0  0  0  0  0  0  0  0  0  0  0  0
   -4.0794    4.5300    3.6068 H   0  0  0  0  0  0  0  0  0  0  0  0
   -4.3340    4.5075    5.3667 H   0  0  0  0  0  0  0  0  0  0  0  0
   -5.3531    2.4738    4.3531 H   0  0  0  0  0  0  0  0  0  0  0  0
   -3.8114    2.0464    3.6105 H   0  0  0  0  0  0  0  0  0  0  0  0
   -3.9773    2.0195    5.3680 H   0  0  0  0  0  0  0  0  0  0  0  0
   -0.2820    0.6915    1.9425 H   0  0  0  0  0  0  0  0  0  0  0  0
    2.9514   -0.1619   -3.4803 H   0  0  0  0  0  0  0  0  0  0  0  0
    3.7810   -1.1212   -5.5879 H   0  0  0  0  0  0  0  0  0  0  0  0
    2.2260   -1.3046  -10.2599 H   0  0  0  0  0  0  0  0  0  0  0  0
    0.7132   -1.1252   -9.3535 H   0  0  0  0  0  0  0  0  0  0  0  0
    1.5534    1.1080  -10.0897 H   0  0  0  0  0  0  0  0  0  0  0  0
    1.6173    1.0005   -8.3290 H   0  0  0  0  0  0  0  0  0  0  0  0
    3.0952    0.8149   -9.2826 H   0  0  0  0  0  0  0  0  0  0  0  0
   -1.0130   -0.1187   -5.0982 H   0  0  0  0  0  0  0  0  0  0  0  0
    2.5819    2.1827   -4.0515 H   0  0  0  0  0  0  0  0  0  0  0  0
    4.2632    3.4750   -4.6691 H   0  0  0  0  0  0  0  0  0  0  0  0
    6.3352    2.2956   -4.8080 H   0  0  0  0  0  0  0  0  0  0  0  0
    5.9951    0.7381   -6.6382 H   0  0  0  0  0  0  0  0  0  0  0  0
    5.5347   -1.0808   -9.8040 H   0  0  0  0  0  0  0  0  0  0  0  0
    5.2173   -0.5628   -8.1474 H   0  0  0  0  0  0  0  0  0  0  0  0
    7.7433   -0.4099   -7.7855 H   0  0  0  0  0  0  0  0  0  0  0  0
    7.9758   -0.9868   -9.4350 H   0  0  0  0  0  0  0  0  0  0  0  0
    7.2326   -2.0440   -8.2291 H   0  0  0  0  0  0  0  0  0  0  0  0
    6.8813    5.4928   -7.6055 H   0  0  0  0  0  0  0  0  0  0  0  0
    8.9497    6.8499   -0.9551 H   0  0  0  0  0  0  0  0  0  0  0  0
    9.1986    8.2670    1.0103 H   0  0  0  0  0  0  0  0  0  0  0  0
    8.5641   10.0449    4.2205 H   0  0  0  0  0  0  0  0  0  0  0  0
    9.4303    9.2267    2.9118 H   0  0  0  0  0  0  0  0  0  0  0  0
    7.7412    7.3490    3.0108 H   0  0  0  0  0  0  0  0  0  0  0  0
    8.5392    7.5640    4.5736 H   0  0  0  0  0  0  0  0  0  0  0  0
    6.9060    8.1902    4.3188 H   0  0  0  0  0  0  0  0  0  0  0  0
    5.0190    8.4248   -1.6008 H   0  0  0  0  0  0  0  0  0  0  0  0
    9.2098    8.2789   -2.9600 H   0  0  0  0  0  0  0  0  0  0  0  0
   11.1507    9.3975   -3.5230 H   0  0  0  0  0  0  0  0  0  0  0  0
   11.4837   11.8074   -4.1596 H   0  0  0  0  0  0  0  0  0  0  0  0
   10.7720   13.1428   -2.2153 H   0  0  0  0  0  0  0  0  0  0  0  0
   11.7941   13.2407    2.5705 H   0  0  0  0  0  0  0  0  0  0  0  0
   13.2025   12.4266    1.8653 H   0  0  0  0  0  0  0  0  0  0  0  0
   10.2737   11.5779    1.5069 H   0  0  0  0  0  0  0  0  0  0  0  0
   11.6597   10.7546    0.7797 H   0  0  0  0  0  0  0  0  0  0  0  0
   11.4615   10.7606    2.5372 H   0  0  0  0  0  0  0  0  0  0  0  0
   15.0718   10.7492   -2.0738 H   0  0  0  0  0  0  0  0  0  0  0  0
   13.0264    8.3615   -8.9616 H   0  0  0  0  0  0  0  0  0  0  0  0
   13.6258    6.9265  -10.8665 H   0  0  0  0  0  0  0  0  0  0  0  0
   17.4203    3.9378  -10.3026 H   0  0  0  0  0  0  0  0  0  0  0  0
   16.6482    3.1432  -11.6866 H   0  0  0  0  0  0  0  0  0  0  0  0
   14.5208    2.9322  -10.3855 H   0  0  0  0  0  0  0  0  0  0  0  0
   15.8523    2.1184   -9.5518 H   0  0  0  0  0  0  0  0  0  0  0  0
   15.2899    3.6958   -8.9914 H   0  0  0  0  0  0  0  0  0  0  0  0
   16.6802    7.2478   -7.0225 H   0  0  0  0  0  0  0  0  0  0  0  0
   17.0497    9.6644   -7.5337 H   0  0  0  0  0  0  0  0  0  0  0  0
   18.1030   11.5642   -6.0996 H   0  0  0  0  0  0  0  0  0  0  0  0
  1  2  2  0  0  0  0
  2  3  1  0  0  0  0
  3  4  2  0  0  0  0
  4  5  1  0  0  0  0
  5  6  2  0  0  0  0
  6  7  1  0  0  0  0
  7  8  2  0  0  0  0
  8  9  1  0  0  0  0
  9 10  1  0  0  0  0
 10 11  1  0  0  0  0
  8 12  1  0  0  0  0
 12 13  1  0  0  0  0
 12 14  2  0  0  0  0
  4 15  1  0  0  0  0
 15 16  2  0  0  0  0
 16 17  1  0  0  0  0
 17 18  1  0  0  0  0
 18 19  2  0  0  0  0
 19 20  1  0  0  0  0
 20 21  2  0  0  0  0
 21 22  1  0  0  0  0
 22 23  1  0  0  0  0
 23 24  1  0  0  0  0
 21 25  1  0  0  0  0
 25 26  2  0  0  0  0
 25 27  1  0  0  0  0
 17 28  2  0  0  0  0
 28 29  1  0  0  0  0
 16 30  1  0  0  0  0
 30 31  2  0  0  0  0
 31 32  1  0  0  0  0
 31 33  1  0  0  0  0
 33 34  1  0  0  0  0
 34 35  1  0  0  0  0
 35 36  2  0  0  0  0
 36 37  1  0  0  0  0
 37 38  1  0  0  0  0
 38 39  2  0  0  0  0
 39 40  1  0  0  0  0
 39 41  1  0  0  0  0
 41 42  1  0  0  0  0
 42 43  1  0  0  0  0
 41 44  2  0  0  0  0
 35 45  1  0  0  0  0
 45 46  2  0  0  0  0
 46 47  1  0  0  0  0
 47 48  2  0  0  0  0
 48 49  1  0  0  0  0
 49 50  2  0  0  0  0
 50 51  1  0  0  0  0
 51 52  2  0  0  0  0
 52 53  1  0  0  0  0
 53 54  1  0  0  0  0
 54 55  1  0  0  0  0
 52 56  1  0  0  0  0
 56 57  1  0  0  0  0
 56 58  2  0  0  0  0
 48 59  1  0  0  0  0
 59 60  2  0  0  0  0
 60 61  1  0  0  0  0
 61 62  1  0  0  0  0
 62 63  2  0  0  0  0
 63 64  1  0  0  0  0
 64 65  2  0  0  0  0
 65 66  1  0  0  0  0
 66 67  1  0  0  0  0
 67 68  1  0  0  0  0
 65 69  1  0  0  0  0
 69 70  2  0  0  0  0
 69 71  1  0  0  0  0
 61 72  2  0  0  0  0
 72 73  1  0  0  0  0
 60 74  1  0  0  0  0
 74 75  2  0  0  0  0
 75 76  1  0  0  0  0
 75 77  1  0  0  0  0
 77 78  2  0  0  0  0
 78 79  1  0  0  0  0
 79 80  2  0  0  0  0
 80 81  1  0  0  0  0
 81 82  2  0  0  0  0
 82 83  1  0  0  0  0
 83 84  2  0  0  0  0
 84 85  1  0  0  0  0
 85 86  1  0  0  0  0
 86 87  1  0  0  0  0
 84 88  1  0  0  0  0
 88 89  1  0  0  0  0
 88 90  2  0  0  0  0
 80 91  1  0  0  0  0
 91 92  2  0  0  0  0
 92 93  1  0  0  0  0
 93 94  1  0  0  0  0
 94 95  2  0  0  0  0
 95 96  1  0  0  0  0
 96 97  2  0  0  0  0
 97 98  1  0  0  0  0
 98 99  1  0  0  0  0
 99100  1  0  0  0  0
 97101  1  0  0  0  0
101102  2  0  0  0  0
101103  1  0  0  0  0
 93104  2  0  0  0  0
104105  1  0  0  0  0
 92106  1  0  0  0  0
106107  2  0  0  0  0
107108  1  0  0  0  0
107109  1  0  0  0  0
109110  2  0  0  0  0
110111  1  0  0  0  0
111112  2  0  0  0  0
112113  1  0  0  0  0
113114  2  0  0  0  0
114115  1  0  0  0  0
115116  2  0  0  0  0
116117  1  0  0  0  0
117118  1  0  0  0  0
118119  1  0  0  0  0
116120  1  0  0  0  0
120121  1  0  0  0  0
120122  2  0  0  0  0
112123  1  0  0  0  0
123124  2  0  0  0  0
124125  1  0  0  0  0
125126  1  0  0  0  0
126127  2  0  0  0  0
127128  1  0  0  0  0
128129  2  0  0  0  0
129130  1  0  0  0  0
130131  1  0  0  0  0
131132  1  0  0  0  0
129133  1  0  0  0  0
133134  2  0  0  0  0
133135  1  0  0  0  0
125136  2  0  0  0  0
136137  1  0  0  0  0
124138  1  0  0  0  0
138139  2  0  0  0  0
139140  1  0  0  0  0
139141  1  0  0  0  0
141142  2  0  0  0  0
142143  1  0  0  0  0
143144  2  0  0  0  0
144145  1  0  0  0  0
145146  2  0  0  0  0
146147  1  0  0  0  0
147148  2  0  0  0  0
148149  1  0  0  0  0
149150  1  0  0  0  0
150151  1  0  0  0  0
148152  1  0  0  0  0
152153  1  0  0  0  0
152154  2  0  0  0  0
144155  1  0  0  0  0
155156  2  0  0  0  0
156157  1  0  0  0  0
157158  1  0  0  0  0
158159  2  0  0  0  0
159160  1  0  0  0  0
160161  2  0  0  0  0
161162  1  0  0  0  0
162163  1  0  0  0  0
163164  1  0  0  0  0
161165  1  0  0  0  0
165166  2  0  0  0  0
165167  1  0  0  0  0
157168  2  0  0  0  0
168169  1  0  0  0  0
156170  1  0  0  0  0
170171  2  0  0  0  0
171172  1  0  0  0  0
 29  1  1  0  0  0  0
 37 33  2  0  0  0  0
 73 45  1  0  0  0  0
105 77  1  0  0  0  0
137109  1  0  0  0  0
169141  1  0  0  0  0
 28  3  1  0  0  0  0
 44 36  1  0  0  0  0
 72 47  1  0  0  0  0
104 79  1  0  0  0  0
136111  1  0  0  0  0
168143  1  0  0  0  0
 14  5  1  0  0  0  0
 32 15  1  0  0  0  0
 58 49  1  0  0  0  0
 76 59  1  0  0  0  0
 90 81  1  0  0  0  0
108 91  1  0  0  0  0
122113  1  0  0  0  0
140123  1  0  0  0  0
154145  1  0  0  0  0
172155  1  0  0  0  0
 26 18  1  0  0  0  0
 70 62  1  0  0  0  0
102 94  1  0  0  0  0
134126  1  0  0  0  0
166158  1  0  0  0  0
  1173  1  0  0  0  0
  2174  1  0  0  0  0
  6175  1  0  0  0  0
  7176  1  0  0  0  0
 10177  1  0  0  0  0
 10178  1  0  0  0  0
 11179  1  0  0  0  0
 11180  1  0  0  0  0
 11181  1  0  0  0  0
 14182  1  0  0  0  0
 19183  1  0  0  0  0
 20184  1  0  0  0  0
 23185  1  0  0  0  0
 23186  1  0  0  0  0
 24187  1  0  0  0  0
 24188  1  0  0  0  0
 24189  1  0  0  0  0
 26190  1  0  0  0  0
 30191  1  0  0  0  0
 38192  1  0  0  0  0
 40193  1  0  0  0  0
 40194  1  0  0  0  0
 40195  1  0  0  0  0
 43196  1  0  0  0  0
 43197  1  0  0  0  0
 43198  1  0  0  0  0
 44199  1  0  0  0  0
 46200  1  0  0  0  0
 50201  1  0  0  0  0
 51202  1  0  0  0  0
 54203  1  0  0  0  0
 54204  1  0  0  0  0
 55205  1  0  0  0  0
 55206  1  0  0  0  0
 55207  1  0  0  0  0
 58208  1  0  0  0  0
 63209  1  0  0  0  0
 64210  1  0  0  0  0
 67211  1  0  0  0  0
 67212  1  0  0  0  0
 68213  1  0  0  0  0
 68214  1  0  0  0  0
 68215  1  0  0  0  0
 70216  1  0  0  0  0
 74217  1  0  0  0  0
 78218  1  0  0  0  0
 82219  1  0  0  0  0
 83220  1  0  0  0  0
 86221  1  0  0  0  0
 86222  1  0  0  0  0
 87223  1  0  0  0  0
 87224  1  0  0  0  0
 87225  1  0  0  0  0
 90226  1  0  0  0  0
 95227  1  0  0  0  0
 96228  1  0  0  0  0
 99229  1  0  0  0  0
 99230  1  0  0  0  0
100231  1  0  0  0  0
100232  1  0  0  0  0
100233  1  0  0  0  0
102234  1  0  0  0  0
106235  1  0  0  0  0
110236  1  0  0  0  0
114237  1  0  0  0  0
115238  1  0  0  0  0
118239  1  0  0  0  0
118240  1  0  0  0  0
119241  1  0  0  0  0
119242  1  0  0  0  0
119243  1  0  0  0  0
122244  1  0  0  0  0
127245  1  0  0  0  0
128246  1  0  0  0  0
131247  1  0  0  0  0
131248  1  0  0  0  0
132249  1  0  0  0  0
132250  1  0  0  0  0
132251  1  0  0  0  0
134252  1  0  0  0  0
138253  1  0  0  0  0
142254  1  0  0  0  0
146255  1  0  0  0  0
147256  1  0  0  0  0
150257  1  0  0  0  0
150258  1  0  0  0  0
151259  1  0  0  0  0
151260  1  0  0  0  0
151261  1  0  0  0  0
154262  1  0  0  0  0
159263  1  0  0  0  0
160264  1  0  0  0  0
163265  1  0  0  0  0
163266  1  0  0  0  0
164267  1  0  0  0  0
164268  1  0  0  0  0
164269  1  0  0  0  0
166270  1  0  0  0  0
170271  1  0  0  0  0
171272  1  0  0  0  0
M  END
