212

C          8.60190       -8.57610       11.52320
C          8.54620       -8.99850       10.24440
C          7.74860       -8.15580        9.41390
C          7.46520       -8.29950        8.04730
C          7.94720       -9.45200        7.27500
C          7.71810      -10.75260        7.71320
C          8.15210      -11.84160        6.98150
C          8.83060      -11.66710        5.78100
S          9.46170      -12.96020        4.76240
C          8.61080      -14.46010        5.36340
C          7.13420      -14.46280        5.01610
C          9.05990      -10.35680        5.35780
F          9.72930      -10.15050        4.20600
C          8.63060       -9.26380        6.07570
C          6.69480       -7.30630        7.46340
C          6.16960       -6.20460        8.18360
C          6.42530       -6.07970        9.55920
C          5.84780       -4.98580       10.34920
C          4.47930       -4.71870       10.30350
C          3.93410       -3.71010       11.06700
C          4.72720       -2.91840       11.89720
S          3.91930       -1.63370       12.79900
C          4.88550       -1.51550       14.35810
C          3.99590       -0.93810       15.44130
C          6.09400       -3.17880       11.91290
C          6.64980       -4.20070       11.17000
F          6.93520       -2.42260       12.65480
C          7.23000       -7.05370       10.13390
S          7.70150       -7.12580       11.81360
C          5.42870       -5.32850        7.35180
C          5.35100       -5.73670        6.04960
S          6.20070       -7.25640        5.79260
C          4.68420       -5.13210        4.95090
S          4.17090       -6.12920        3.63270
C          3.43190       -4.80560        2.77960
C          3.63310       -3.60670        3.49620
C          4.34010       -3.79670        4.72220
C          4.65440       -2.67430        5.51770
C          4.26600       -1.42020        5.14900
C          4.58080       -0.21520        5.97430
C          3.55300       -1.23510        3.92450
O          3.23000        0.05050        3.64500
C          2.52860        0.33310        2.45600
C          3.26020       -2.30510        3.11560
C          2.69290       -5.02910        1.60120
S          1.56820       -3.83330        1.02880
C          0.98920       -4.83400       -0.26780
C          1.69910       -6.04070       -0.29970
C          2.64600       -6.16120        0.76140
C          3.44270       -7.32160        0.81740
C          3.32430       -8.30930       -0.11880
C          4.16380       -9.54470       -0.07040
C          2.40240       -8.15650       -1.19770
O          2.39350       -9.18330       -2.09060
C          1.51510       -9.11130       -3.18580
C          1.61930       -7.03590       -1.29320
C         -0.02140       -4.31260       -1.10540
S         -0.05780       -2.59850       -1.37610
C         -1.46180       -2.69310       -2.40220
C         -1.89280       -4.02030       -2.51430
C         -1.09220       -4.93350       -1.76170
C         -1.49800       -6.28120       -1.66780
C         -2.58560       -6.73520       -2.35500
C         -3.03680       -8.15850       -2.27400
C         -3.33270       -5.83160       -3.17370
O         -4.37890       -6.39620       -3.83120
C         -5.20310       -5.57050       -4.61870
C         -3.00080       -4.50320       -3.23730
C         -1.98200       -1.48170       -2.91110
C         -1.42860       -0.24010       -2.72360
C         -2.17850        0.81940       -3.27270
C         -1.87110        2.18990       -3.26630
C         -0.70240        2.74070       -2.57210
C          0.13260        3.65490       -3.20990
C          1.17160        4.26500       -2.53770
C          1.41060        3.98950       -1.19610
S          2.66830        4.76180       -0.23130
C          2.93260        6.35600       -1.08700
C          1.69940        7.23820       -1.06690
C          0.60210        3.03140       -0.58450
F          0.82630        2.70870        0.70800
C         -0.43790        2.41410       -1.24340
C         -2.76090        3.02550       -3.92180
C         -3.94370        2.57680       -4.55900
C         -4.24290        1.20090       -4.57700
C         -5.42630        0.67610       -5.26690
C         -5.71980        1.05500       -6.57400
C         -6.81260        0.53770       -7.24230
C         -7.64950       -0.38800       -6.62970
S         -9.08040       -1.11660       -7.35610
C         -8.90210       -0.76910       -9.14000
C         -7.77670       -1.56630       -9.77130
C         -7.34800       -0.75300       -5.31670
C         -6.26660       -0.24070       -4.63770
F         -8.14240       -1.64260       -4.68580
C         -3.35280        0.36360       -3.92450
S         -3.47970       -1.37570       -3.82390
C         -4.71470        3.65730       -5.06130
C         -4.14690        4.87780       -4.84700
S         -2.61650        4.75930       -3.99620
C         -4.60410        6.18000       -5.20060
C         -3.91060        7.33820       -5.01640
C         -4.60690        8.49630       -5.43820
C         -4.16810        9.82770       -5.37610
C         -2.86100       10.14720       -4.78820
C         -2.50990        9.66250       -3.52820
C         -1.26240        9.91460       -3.00000
C         -0.31180       10.64780       -3.70740
S          1.28710       10.82530       -2.96790
C          1.77280       12.54740       -3.35160
C          0.76050       13.54990       -2.83620
C         -0.67570       11.12670       -4.96180
F          0.20220       11.82090       -5.71920
C         -1.93010       10.90160       -5.49310
C         -5.02230       10.78580       -5.90060
C         -6.29570       10.47370       -6.43610
C         -6.74190        9.14350       -6.47620
C         -8.07060        8.79020       -6.99270
C         -8.22390        7.80780       -7.96920
C         -9.47610        7.46730       -8.43120
C        -10.62570        8.08870       -7.94370
S        -12.16680        7.58600       -8.64130
C        -13.37170        7.80250       -7.27030
C        -14.56070        6.89530       -7.51790
C        -10.45540        9.08260       -6.98460
C         -9.20740        9.42540       -6.50470
F        -11.51580        9.76060       -6.48750
C         -5.87060        8.17910       -5.99230
S         -6.17260        6.45750       -5.93320
C         -6.96410       11.64310       -6.90850
C         -6.25080       12.77070       -6.71770
S         -4.71800       12.50280       -5.95940
H          9.12950       -9.02150       12.34380
H          9.06050       -9.86930        9.88000
H          7.17410      -10.91650        8.63140
H          7.95870      -12.83200        7.36070
H          9.13130      -15.26860        4.85000
H          8.78880      -14.55990        6.43340
H          6.62130      -13.62300        5.48020
H          6.67400      -15.38650        5.36200
H          7.00310      -14.39030        3.93910
H          8.84480       -8.27460        5.70350
H          3.83700       -5.33070        9.68880
H          2.87320       -3.51570       11.03900
H          5.75200       -0.88050       14.17950
H          5.21160       -2.52310       14.61130
H          3.64750        0.05330       15.16030
H          4.55390       -0.86110       16.37200
H          3.12890       -1.57460       15.60350
H          7.71670       -4.35230       11.21790
H          4.94550       -4.44450        7.72260
H          5.23340       -2.80870        6.41700
H          5.13160       -0.48960        6.86980
H          3.65930        0.29000        6.25910
H          5.16810        0.49250        5.39150
H          1.56610       -0.18600        2.42550
H          2.35770        1.40780        2.45720
H          3.11320        0.06190        1.57170
H          2.76690       -2.14930        2.17340
H          4.17720       -7.43220        1.59800
H          4.75310       -9.63170       -0.98180
H          3.52680      -10.42600       -0.01270
H          4.82970       -9.52640        0.78760
H          1.74960       -8.26150       -3.83500
H          0.47160       -9.03900       -2.86220
H          1.65840      -10.03770       -3.73990
H          0.96100       -6.87510       -2.12990
H         -0.95670       -6.94890       -1.01560
H         -2.40850       -8.72620       -1.59260
H         -3.00470       -8.61750       -3.26140
H         -4.06910       -8.20420       -1.93140
H         -5.96850       -6.22590       -5.03080
H         -4.64280       -5.10680       -5.43670
H         -5.67980       -4.78860       -4.01980
H         -3.58000       -3.81260       -3.82500
H         -0.49300       -0.10140       -2.21230
H         -0.02440        3.88460       -4.25250
H          1.79820        4.96320       -3.06840
H          3.74620        6.81100       -0.52250
H          3.28310        6.15790       -2.09910
H          1.39240        7.42990       -0.04140
H          0.87190        6.76440       -1.59180
H          1.91570        8.18900       -1.55100
H         -1.05930        1.71520       -0.70580
H         -5.06990        1.74890       -7.08560
H         -7.00670        0.86610       -8.25050
H         -9.86610       -1.06540       -9.55330
H         -8.78300        0.30480       -9.27800
H         -7.73000       -1.36080      -10.83910
H         -7.94690       -2.63090       -9.62870
H         -6.81790       -1.31040       -9.32520
H         -6.09560       -0.54860       -3.61860
H         -5.66770        3.53980       -5.54620
H         -2.91780        7.35660       -4.60410
H         -3.23030        9.10210       -2.95230
H         -0.99560        9.53830       -2.02460
H          2.73010       12.65560       -2.84150
H          1.92980       12.63950       -4.42410
H         -0.19460       13.43520       -3.34580
H          0.60070       13.41740       -1.76810
H          1.12430       14.55990       -3.01350
H         -2.15250       11.28620       -6.47610
H         -7.35300        7.31610       -8.37400
H         -9.59130        6.70600       -9.18690
H        -13.67420        8.84810       -7.23850
H        -12.85940        7.53680       -6.34690
H        -15.28370        7.01180       -6.71340
H        -14.24610        5.85490       -7.55870
H        -15.04330        7.14690       -8.45960
H         -9.13630       10.18430       -5.74070
H         -7.92870       11.62160       -7.38200
H         -6.52080       13.77450       -6.98170
