
  xtb     03042211283D
 energy: -416.052766112674 gnorm: 0.000505320410 xtb: 6.4.1 (unknown)
242265  0     0  0            999 V2000
   -4.2975   -0.1330   16.1785 C   0  0  0  0  0  0  0  0  0  0  0  0
   -5.2125    0.7515   15.7342 C   0  0  0  0  0  0  0  0  0  0  0  0
   -5.2993    0.7952   14.3105 C   0  0  0  0  0  0  0  0  0  0  0  0
   -6.1349    1.5954   13.5151 C   0  0  0  0  0  0  0  0  0  0  0  0
   -7.0060    2.6210   14.1019 C   0  0  0  0  0  0  0  0  0  0  0  0
   -6.4960    3.5523   15.0063 C   0  0  0  0  0  0  0  0  0  0  0  0
   -7.3007    4.5438   15.5231 C   0  0  0  0  0  0  0  0  0  0  0  0
   -8.6455    4.6448   15.1687 C   0  0  0  0  0  0  0  0  0  0  0  0
   -9.5864    5.9380   15.9165 S   0  0  0  0  0  0  0  0  0  0  0  0
  -10.7791    6.4194   14.6032 C   0  0  0  0  0  0  0  0  0  0  0  0
  -11.2033    7.8567   14.8314 C   0  0  0  0  0  0  0  0  0  0  0  0
   -9.1472    3.6931   14.2863 C   0  0  0  0  0  0  0  0  0  0  0  0
  -10.4523    3.6980   13.9304 F   0  0  0  0  0  0  0  0  0  0  0  0
   -8.3477    2.7058   13.7472 C   0  0  0  0  0  0  0  0  0  0  0  0
   -6.0665    1.3943   12.1450 C   0  0  0  0  0  0  0  0  0  0  0  0
   -5.1648    0.4851   11.5401 C   0  0  0  0  0  0  0  0  0  0  0  0
   -4.3013   -0.2876   12.3337 C   0  0  0  0  0  0  0  0  0  0  0  0
   -3.3284   -1.1998   11.7220 C   0  0  0  0  0  0  0  0  0  0  0  0
   -3.2429   -2.5330   12.1093 C   0  0  0  0  0  0  0  0  0  0  0  0
   -2.3395   -3.3944   11.5163 C   0  0  0  0  0  0  0  0  0  0  0  0
   -1.4747   -2.9469   10.5248 C   0  0  0  0  0  0  0  0  0  0  0  0
   -0.2952   -3.9355    9.6653 S   0  0  0  0  0  0  0  0  0  0  0  0
   -0.1964   -5.4743   10.6397 C   0  0  0  0  0  0  0  0  0  0  0  0
    0.5031   -5.2695   11.9698 C   0  0  0  0  0  0  0  0  0  0  0  0
   -1.5647   -1.6039   10.1544 C   0  0  0  0  0  0  0  0  0  0  0  0
   -2.4685   -0.7390   10.7259 C   0  0  0  0  0  0  0  0  0  0  0  0
   -0.7344   -1.1322    9.2009 F   0  0  0  0  0  0  0  0  0  0  0  0
   -4.4145   -0.1303   13.7070 C   0  0  0  0  0  0  0  0  0  0  0  0
   -3.4787   -0.9807   14.9105 S   0  0  0  0  0  0  0  0  0  0  0  0
   -5.2940    0.4713   10.1319 C   0  0  0  0  0  0  0  0  0  0  0  0
   -6.2367    1.3355    9.6448 C   0  0  0  0  0  0  0  0  0  0  0  0
   -7.0180    2.2261   10.9404 S   0  0  0  0  0  0  0  0  0  0  0  0
   -6.5515    1.5113    8.2706 C   0  0  0  0  0  0  0  0  0  0  0  0
   -5.4907    0.7945    7.1047 S   0  0  0  0  0  0  0  0  0  0  0  0
   -6.4305    1.3528    5.7608 C   0  0  0  0  0  0  0  0  0  0  0  0
   -7.5565    2.0568    6.2071 C   0  0  0  0  0  0  0  0  0  0  0  0
   -7.6116    2.1631    7.6331 C   0  0  0  0  0  0  0  0  0  0  0  0
   -8.6868    2.8567    8.2282 C   0  0  0  0  0  0  0  0  0  0  0  0
   -9.6719    3.4130    7.4678 C   0  0  0  0  0  0  0  0  0  0  0  0
  -10.8182    4.1546    8.0742 C   0  0  0  0  0  0  0  0  0  0  0  0
   -9.6284    3.2748    6.0447 C   0  0  0  0  0  0  0  0  0  0  0  0
  -10.6748    3.8418    5.3887 O   0  0  0  0  0  0  0  0  0  0  0  0
  -10.7239    3.7513    3.9858 C   0  0  0  0  0  0  0  0  0  0  0  0
   -8.5985    2.6086    5.4347 C   0  0  0  0  0  0  0  0  0  0  0  0
   -5.9618    1.0595    4.4532 C   0  0  0  0  0  0  0  0  0  0  0  0
   -6.3511    1.5498    3.2363 C   0  0  0  0  0  0  0  0  0  0  0  0
   -5.6244    1.0234    2.1433 C   0  0  0  0  0  0  0  0  0  0  0  0
   -5.7688    1.3511    0.7825 C   0  0  0  0  0  0  0  0  0  0  0  0
   -6.8563    2.2260    0.3322 C   0  0  0  0  0  0  0  0  0  0  0  0
   -8.1691    1.9905    0.7425 C   0  0  0  0  0  0  0  0  0  0  0  0
   -9.1969    2.8013    0.3132 C   0  0  0  0  0  0  0  0  0  0  0  0
   -8.9604    3.8851   -0.5307 C   0  0  0  0  0  0  0  0  0  0  0  0
  -10.3518    4.8821   -0.9786 S   0  0  0  0  0  0  0  0  0  0  0  0
  -10.0624    5.2756   -2.7432 C   0  0  0  0  0  0  0  0  0  0  0  0
   -9.9020    4.0268   -3.5865 C   0  0  0  0  0  0  0  0  0  0  0  0
   -7.6438    4.1221   -0.9133 C   0  0  0  0  0  0  0  0  0  0  0  0
   -7.3311    5.1787   -1.6954 F   0  0  0  0  0  0  0  0  0  0  0  0
   -6.6078    3.3043   -0.5097 C   0  0  0  0  0  0  0  0  0  0  0  0
   -4.8471    0.7960   -0.0890 C   0  0  0  0  0  0  0  0  0  0  0  0
   -3.8172   -0.0857    0.3267 C   0  0  0  0  0  0  0  0  0  0  0  0
   -3.6896   -0.4342    1.6841 C   0  0  0  0  0  0  0  0  0  0  0  0
   -2.6087   -1.3002    2.1687 C   0  0  0  0  0  0  0  0  0  0  0  0
   -1.2820   -1.0677    1.8072 C   0  0  0  0  0  0  0  0  0  0  0  0
   -0.2657   -1.8448    2.3225 C   0  0  0  0  0  0  0  0  0  0  0  0
   -0.5325   -2.8823    3.2107 C   0  0  0  0  0  0  0  0  0  0  0  0
    0.8224   -3.8312    3.8486 S   0  0  0  0  0  0  0  0  0  0  0  0
    0.5008   -3.7884    5.6509 C   0  0  0  0  0  0  0  0  0  0  0  0
    0.4387   -2.3698    6.1753 C   0  0  0  0  0  0  0  0  0  0  0  0
   -1.8629   -3.1289    3.5338 C   0  0  0  0  0  0  0  0  0  0  0  0
   -2.8880   -2.3495    3.0393 C   0  0  0  0  0  0  0  0  0  0  0  0
   -2.1914   -4.1541    4.3474 F   0  0  0  0  0  0  0  0  0  0  0  0
   -4.6108    0.1238    2.5556 C   0  0  0  0  0  0  0  0  0  0  0  0
   -4.6376   -0.0896    4.2852 S   0  0  0  0  0  0  0  0  0  0  0  0
   -3.0323   -0.5255   -0.7608 C   0  0  0  0  0  0  0  0  0  0  0  0
   -3.3998   -0.0012   -1.9725 C   0  0  0  0  0  0  0  0  0  0  0  0
   -4.7991    1.0473   -1.8158 S   0  0  0  0  0  0  0  0  0  0  0  0
   -2.6946   -0.1859   -3.1895 C   0  0  0  0  0  0  0  0  0  0  0  0
   -1.1676   -0.9993   -3.1145 S   0  0  0  0  0  0  0  0  0  0  0  0
   -0.8356   -0.7451   -4.7962 C   0  0  0  0  0  0  0  0  0  0  0  0
   -1.8954   -0.0629   -5.4072 C   0  0  0  0  0  0  0  0  0  0  0  0
   -2.9535    0.2461   -4.4945 C   0  0  0  0  0  0  0  0  0  0  0  0
   -4.0954    0.9239   -4.9705 C   0  0  0  0  0  0  0  0  0  0  0  0
   -4.1931    1.3079   -6.2750 C   0  0  0  0  0  0  0  0  0  0  0  0
   -5.3936    2.0232   -6.8033 C   0  0  0  0  0  0  0  0  0  0  0  0
   -3.1165    1.0291   -7.1735 C   0  0  0  0  0  0  0  0  0  0  0  0
   -3.3073    1.4788   -8.4437 O   0  0  0  0  0  0  0  0  0  0  0  0
   -2.2923    1.2701   -9.3929 C   0  0  0  0  0  0  0  0  0  0  0  0
   -2.0004    0.3590   -6.7481 C   0  0  0  0  0  0  0  0  0  0  0  0
    0.4298   -1.1670   -5.2841 C   0  0  0  0  0  0  0  0  0  0  0  0
    0.9471   -1.2003   -6.5500 C   0  0  0  0  0  0  0  0  0  0  0  0
    2.3058   -1.5945   -6.6080 C   0  0  0  0  0  0  0  0  0  0  0  0
    3.1206   -1.7108   -7.7479 C   0  0  0  0  0  0  0  0  0  0  0  0
    2.6179   -1.3311   -9.0730 C   0  0  0  0  0  0  0  0  0  0  0  0
    1.9933   -0.1012   -9.2657 C   0  0  0  0  0  0  0  0  0  0  0  0
    1.4919    0.2636  -10.4998 C   0  0  0  0  0  0  0  0  0  0  0  0
    1.6049   -0.5881  -11.5927 C   0  0  0  0  0  0  0  0  0  0  0  0
    0.9711   -0.2702  -13.2061 S   0  0  0  0  0  0  0  0  0  0  0  0
    0.6303    1.5242  -13.2071 C   0  0  0  0  0  0  0  0  0  0  0  0
    1.9016    2.3514  -13.1874 C   0  0  0  0  0  0  0  0  0  0  0  0
    2.2444   -1.8124  -11.3884 C   0  0  0  0  0  0  0  0  0  0  0  0
    2.3685   -2.6637  -12.4253 F   0  0  0  0  0  0  0  0  0  0  0  0
    2.7466   -2.1887  -10.1630 C   0  0  0  0  0  0  0  0  0  0  0  0
    4.4132   -2.1679   -7.5433 C   0  0  0  0  0  0  0  0  0  0  0  0
    4.9275   -2.5022   -6.2648 C   0  0  0  0  0  0  0  0  0  0  0  0
    4.1100   -2.3947   -5.1274 C   0  0  0  0  0  0  0  0  0  0  0  0
    4.5503   -2.8060   -3.7900 C   0  0  0  0  0  0  0  0  0  0  0  0
    5.1291   -4.0570   -3.5798 C   0  0  0  0  0  0  0  0  0  0  0  0
    5.4121   -4.4928   -2.3027 C   0  0  0  0  0  0  0  0  0  0  0  0
    5.1420   -3.6991   -1.1907 C   0  0  0  0  0  0  0  0  0  0  0  0
    5.4846   -4.3586    0.4152 S   0  0  0  0  0  0  0  0  0  0  0  0
    3.9738   -3.9226    1.3563 C   0  0  0  0  0  0  0  0  0  0  0  0
    2.7158   -4.4284    0.6810 C   0  0  0  0  0  0  0  0  0  0  0  0
    4.6289   -2.4262   -1.4206 C   0  0  0  0  0  0  0  0  0  0  0  0
    4.3209   -1.9848   -2.6903 C   0  0  0  0  0  0  0  0  0  0  0  0
    4.4073   -1.5769   -0.3946 F   0  0  0  0  0  0  0  0  0  0  0  0
    2.8235   -1.9211   -5.3314 C   0  0  0  0  0  0  0  0  0  0  0  0
    1.6185   -1.6921   -4.0953 S   0  0  0  0  0  0  0  0  0  0  0  0
    6.2978   -2.8587   -6.3230 C   0  0  0  0  0  0  0  0  0  0  0  0
    6.8207   -2.8181   -7.5809 C   0  0  0  0  0  0  0  0  0  0  0  0
    5.6324   -2.3392   -8.7795 S   0  0  0  0  0  0  0  0  0  0  0  0
    8.1598   -3.0971   -7.9823 C   0  0  0  0  0  0  0  0  0  0  0  0
    8.6685   -3.0857   -9.2460 C   0  0  0  0  0  0  0  0  0  0  0  0
   10.0516   -3.3956   -9.3051 C   0  0  0  0  0  0  0  0  0  0  0  0
   10.8809   -3.4289  -10.4368 C   0  0  0  0  0  0  0  0  0  0  0  0
   10.3404   -3.2196  -11.7854 C   0  0  0  0  0  0  0  0  0  0  0  0
    9.2449   -3.9544  -12.2368 C   0  0  0  0  0  0  0  0  0  0  0  0
    8.7397   -3.7547  -13.5036 C   0  0  0  0  0  0  0  0  0  0  0  0
    9.3043   -2.8206  -14.3696 C   0  0  0  0  0  0  0  0  0  0  0  0
    8.6024   -2.6813  -15.9884 S   0  0  0  0  0  0  0  0  0  0  0  0
    8.5591   -0.8748  -16.2876 C   0  0  0  0  0  0  0  0  0  0  0  0
    7.7517   -0.1472  -15.2316 C   0  0  0  0  0  0  0  0  0  0  0  0
   10.4133   -2.1137  -13.9153 C   0  0  0  0  0  0  0  0  0  0  0  0
   11.0320   -1.2128  -14.7097 F   0  0  0  0  0  0  0  0  0  0  0  0
   10.9231   -2.2953  -12.6457 C   0  0  0  0  0  0  0  0  0  0  0  0
   12.2268   -3.6849  -10.2144 C   0  0  0  0  0  0  0  0  0  0  0  0
   12.7692   -3.9153   -8.9273 C   0  0  0  0  0  0  0  0  0  0  0  0
   11.9411   -3.8777   -7.7956 C   0  0  0  0  0  0  0  0  0  0  0  0
   12.4757   -4.0588   -6.4401 C   0  0  0  0  0  0  0  0  0  0  0  0
   11.9076   -4.9719   -5.5536 C   0  0  0  0  0  0  0  0  0  0  0  0
   12.4022   -5.1088   -4.2749 C   0  0  0  0  0  0  0  0  0  0  0  0
   13.4797   -4.3455   -3.8261 C   0  0  0  0  0  0  0  0  0  0  0  0
   14.0438   -4.6356   -2.1795 S   0  0  0  0  0  0  0  0  0  0  0  0
   14.6541   -2.9925   -1.6243 C   0  0  0  0  0  0  0  0  0  0  0  0
   14.5997   -2.9389   -0.1103 C   0  0  0  0  0  0  0  0  0  0  0  0
   14.0498   -3.4529   -4.7291 C   0  0  0  0  0  0  0  0  0  0  0  0
   13.5576   -3.2983   -6.0090 C   0  0  0  0  0  0  0  0  0  0  0  0
   15.1210   -2.7015   -4.3835 F   0  0  0  0  0  0  0  0  0  0  0  0
   10.5946   -3.6311   -8.0180 C   0  0  0  0  0  0  0  0  0  0  0  0
    9.3725   -3.4966   -6.7794 S   0  0  0  0  0  0  0  0  0  0  0  0
   14.1631   -4.2143   -8.9917 C   0  0  0  0  0  0  0  0  0  0  0  0
   14.6455   -4.1996  -10.2504 C   0  0  0  0  0  0  0  0  0  0  0  0
   13.4538   -3.8241  -11.4474 S   0  0  0  0  0  0  0  0  0  0  0  0
   -4.0400   -0.3617   17.1942 H   0  0  0  0  0  0  0  0  0  0  0  0
   -5.8279    1.3491   16.3820 H   0  0  0  0  0  0  0  0  0  0  0  0
   -5.4518    3.5157   15.2770 H   0  0  0  0  0  0  0  0  0  0  0  0
   -6.8991    5.2706   16.2120 H   0  0  0  0  0  0  0  0  0  0  0  0
  -11.6325    5.7443   14.6472 H   0  0  0  0  0  0  0  0  0  0  0  0
  -10.2670    6.3064   13.6487 H   0  0  0  0  0  0  0  0  0  0  0  0
  -11.9054    8.1596   14.0575 H   0  0  0  0  0  0  0  0  0  0  0  0
  -10.3409    8.5191   14.8014 H   0  0  0  0  0  0  0  0  0  0  0  0
  -11.6852    7.9626   15.8007 H   0  0  0  0  0  0  0  0  0  0  0  0
   -8.7940    1.9900   13.0747 H   0  0  0  0  0  0  0  0  0  0  0  0
   -3.9096   -2.9121   12.8684 H   0  0  0  0  0  0  0  0  0  0  0  0
   -2.3248   -4.4251   11.8307 H   0  0  0  0  0  0  0  0  0  0  0  0
   -1.2013   -5.8794   10.7521 H   0  0  0  0  0  0  0  0  0  0  0  0
    0.3767   -6.1442    9.9985 H   0  0  0  0  0  0  0  0  0  0  0  0
   -0.0358   -4.5576   12.5917 H   0  0  0  0  0  0  0  0  0  0  0  0
    1.5095   -4.8900   11.8092 H   0  0  0  0  0  0  0  0  0  0  0  0
    0.5689   -6.2164   12.5021 H   0  0  0  0  0  0  0  0  0  0  0  0
   -2.4818    0.2925   10.4106 H   0  0  0  0  0  0  0  0  0  0  0  0
   -4.7272   -0.1814    9.4922 H   0  0  0  0  0  0  0  0  0  0  0  0
   -8.7311    2.9443    9.3019 H   0  0  0  0  0  0  0  0  0  0  0  0
  -10.7334    4.1788    9.1569 H   0  0  0  0  0  0  0  0  0  0  0  0
  -10.8464    5.1736    7.6916 H   0  0  0  0  0  0  0  0  0  0  0  0
  -11.7581    3.6801    7.7969 H   0  0  0  0  0  0  0  0  0  0  0  0
  -10.7797    2.7099    3.6527 H   0  0  0  0  0  0  0  0  0  0  0  0
   -9.8604    4.2353    3.5181 H   0  0  0  0  0  0  0  0  0  0  0  0
  -11.6313    4.2736    3.6874 H   0  0  0  0  0  0  0  0  0  0  0  0
   -8.5853    2.4794    4.3680 H   0  0  0  0  0  0  0  0  0  0  0  0
   -7.0872    2.3192    3.1077 H   0  0  0  0  0  0  0  0  0  0  0  0
   -8.3836    1.1428    1.3756 H   0  0  0  0  0  0  0  0  0  0  0  0
  -10.2132    2.6083    0.6208 H   0  0  0  0  0  0  0  0  0  0  0  0
   -9.2007    5.9347   -2.8221 H   0  0  0  0  0  0  0  0  0  0  0  0
  -10.9592    5.8278   -3.0241 H   0  0  0  0  0  0  0  0  0  0  0  0
   -9.8138    4.3034   -4.6353 H   0  0  0  0  0  0  0  0  0  0  0  0
   -9.0073    3.4767   -3.3004 H   0  0  0  0  0  0  0  0  0  0  0  0
  -10.7628    3.3720   -3.4680 H   0  0  0  0  0  0  0  0  0  0  0  0
   -5.6063    3.5408   -0.8331 H   0  0  0  0  0  0  0  0  0  0  0  0
   -1.0424   -0.2449    1.1514 H   0  0  0  0  0  0  0  0  0  0  0  0
    0.7608   -1.6486    2.0540 H   0  0  0  0  0  0  0  0  0  0  0  0
   -0.4128   -4.3414    5.8578 H   0  0  0  0  0  0  0  0  0  0  0  0
    1.3472   -4.3295    6.0731 H   0  0  0  0  0  0  0  0  0  0  0  0
   -0.4117   -1.8353    5.7552 H   0  0  0  0  0  0  0  0  0  0  0  0
    1.3473   -1.8277    5.9220 H   0  0  0  0  0  0  0  0  0  0  0  0
    0.3320   -2.3864    7.2566 H   0  0  0  0  0  0  0  0  0  0  0  0
   -3.9019   -2.5873    3.3206 H   0  0  0  0  0  0  0  0  0  0  0  0
   -2.2163   -1.2188   -0.6607 H   0  0  0  0  0  0  0  0  0  0  0  0
   -4.9058    1.1368   -4.2916 H   0  0  0  0  0  0  0  0  0  0  0  0
   -5.8418    1.4513   -7.6143 H   0  0  0  0  0  0  0  0  0  0  0  0
   -6.1298    2.1726   -6.0187 H   0  0  0  0  0  0  0  0  0  0  0  0
   -5.1023    2.9895   -7.2120 H   0  0  0  0  0  0  0  0  0  0  0  0
   -2.1016    0.2040   -9.5560 H   0  0  0  0  0  0  0  0  0  0  0  0
   -2.6592    1.7142  -10.3172 H   0  0  0  0  0  0  0  0  0  0  0  0
   -1.3601    1.7632   -9.0963 H   0  0  0  0  0  0  0  0  0  0  0  0
   -1.1920    0.1550   -7.4255 H   0  0  0  0  0  0  0  0  0  0  0  0
    0.3815   -0.9941   -7.4374 H   0  0  0  0  0  0  0  0  0  0  0  0
    1.9162    0.5897   -8.4393 H   0  0  0  0  0  0  0  0  0  0  0  0
    1.0061    1.2207  -10.6023 H   0  0  0  0  0  0  0  0  0  0  0  0
   -0.0339    1.7563  -12.3751 H   0  0  0  0  0  0  0  0  0  0  0  0
    0.0838    1.6765  -14.1378 H   0  0  0  0  0  0  0  0  0  0  0  0
    2.4787    2.1615  -12.2849 H   0  0  0  0  0  0  0  0  0  0  0  0
    2.5207    2.1053  -14.0466 H   0  0  0  0  0  0  0  0  0  0  0  0
    1.6555    3.4108  -13.2273 H   0  0  0  0  0  0  0  0  0  0  0  0
    3.2174   -3.1535  -10.0621 H   0  0  0  0  0  0  0  0  0  0  0  0
    5.3109   -4.7088   -4.4206 H   0  0  0  0  0  0  0  0  0  0  0  0
    5.8312   -5.4736   -2.1402 H   0  0  0  0  0  0  0  0  0  0  0  0
    3.9511   -2.8460    1.5091 H   0  0  0  0  0  0  0  0  0  0  0  0
    4.1237   -4.4133    2.3173 H   0  0  0  0  0  0  0  0  0  0  0  0
    1.8643   -4.2582    1.3364 H   0  0  0  0  0  0  0  0  0  0  0  0
    2.5392   -3.9113   -0.2609 H   0  0  0  0  0  0  0  0  0  0  0  0
    2.7927   -5.4951    0.4817 H   0  0  0  0  0  0  0  0  0  0  0  0
    3.9218   -0.9897   -2.8091 H   0  0  0  0  0  0  0  0  0  0  0  0
    6.8854   -3.1120   -5.4584 H   0  0  0  0  0  0  0  0  0  0  0  0
    8.0738   -2.8428  -10.1086 H   0  0  0  0  0  0  0  0  0  0  0  0
    8.7983   -4.6964  -11.5927 H   0  0  0  0  0  0  0  0  0  0  0  0
    7.8909   -4.3235  -13.8498 H   0  0  0  0  0  0  0  0  0  0  0  0
    8.0878   -0.7956  -17.2672 H   0  0  0  0  0  0  0  0  0  0  0  0
    9.5783   -0.5006  -16.3530 H   0  0  0  0  0  0  0  0  0  0  0  0
    6.7468   -0.5595  -15.1681 H   0  0  0  0  0  0  0  0  0  0  0  0
    8.2231   -0.2350  -14.2542 H   0  0  0  0  0  0  0  0  0  0  0  0
    7.6824    0.9088  -15.4859 H   0  0  0  0  0  0  0  0  0  0  0  0
   11.7731   -1.7059  -12.3393 H   0  0  0  0  0  0  0  0  0  0  0  0
   11.0788   -5.5840   -5.8736 H   0  0  0  0  0  0  0  0  0  0  0  0
   11.9590   -5.8151   -3.5905 H   0  0  0  0  0  0  0  0  0  0  0  0
   15.6724   -2.8613   -1.9872 H   0  0  0  0  0  0  0  0  0  0  0  0
   14.0030   -2.2412   -2.0685 H   0  0  0  0  0  0  0  0  0  0  0  0
   13.5807   -3.0851    0.2408 H   0  0  0  0  0  0  0  0  0  0  0  0
   15.2278   -3.7147    0.3215 H   0  0  0  0  0  0  0  0  0  0  0  0
   14.9544   -1.9702    0.2352 H   0  0  0  0  0  0  0  0  0  0  0  0
   14.0207   -2.5717   -6.6588 H   0  0  0  0  0  0  0  0  0  0  0  0
   14.7579   -4.4477   -8.1276 H   0  0  0  0  0  0  0  0  0  0  0  0
   15.6507   -4.3890  -10.5729 H   0  0  0  0  0  0  0  0  0  0  0  0
  1  2  2  0  0  0  0
  2  3  1  0  0  0  0
  3  4  2  0  0  0  0
  4  5  1  0  0  0  0
  5  6  2  0  0  0  0
  6  7  1  0  0  0  0
  7  8  2  0  0  0  0
  8  9  1  0  0  0  0
  9 10  1  0  0  0  0
 10 11  1  0  0  0  0
  8 12  1  0  0  0  0
 12 13  1  0  0  0  0
 12 14  2  0  0  0  0
  4 15  1  0  0  0  0
 15 16  2  0  0  0  0
 16 17  1  0  0  0  0
 17 18  1  0  0  0  0
 18 19  2  0  0  0  0
 19 20  1  0  0  0  0
 20 21  2  0  0  0  0
 21 22  1  0  0  0  0
 22 23  1  0  0  0  0
 23 24  1  0  0  0  0
 21 25  1  0  0  0  0
 25 26  2  0  0  0  0
 25 27  1  0  0  0  0
 17 28  2  0  0  0  0
 28 29  1  0  0  0  0
 16 30  1  0  0  0  0
 30 31  2  0  0  0  0
 31 32  1  0  0  0  0
 31 33  1  0  0  0  0
 33 34  1  0  0  0  0
 34 35  1  0  0  0  0
 35 36  2  0  0  0  0
 36 37  1  0  0  0  0
 37 38  1  0  0  0  0
 38 39  2  0  0  0  0
 39 40  1  0  0  0  0
 39 41  1  0  0  0  0
 41 42  1  0  0  0  0
 42 43  1  0  0  0  0
 41 44  2  0  0  0  0
 35 45  1  0  0  0  0
 45 46  2  0  0  0  0
 46 47  1  0  0  0  0
 47 48  2  0  0  0  0
 48 49  1  0  0  0  0
 49 50  2  0  0  0  0
 50 51  1  0  0  0  0
 51 52  2  0  0  0  0
 52 53  1  0  0  0  0
 53 54  1  0  0  0  0
 54 55  1  0  0  0  0
 52 56  1  0  0  0  0
 56 57  1  0  0  0  0
 56 58  2  0  0  0  0
 48 59  1  0  0  0  0
 59 60  2  0  0  0  0
 60 61  1  0  0  0  0
 61 62  1  0  0  0  0
 62 63  2  0  0  0  0
 63 64  1  0  0  0  0
 64 65  2  0  0  0  0
 65 66  1  0  0  0  0
 66 67  1  0  0  0  0
 67 68  1  0  0  0  0
 65 69  1  0  0  0  0
 69 70  2  0  0  0  0
 69 71  1  0  0  0  0
 61 72  2  0  0  0  0
 72 73  1  0  0  0  0
 60 74  1  0  0  0  0
 74 75  2  0  0  0  0
 75 76  1  0  0  0  0
 75 77  1  0  0  0  0
 77 78  1  0  0  0  0
 78 79  1  0  0  0  0
 79 80  2  0  0  0  0
 80 81  1  0  0  0  0
 81 82  1  0  0  0  0
 82 83  2  0  0  0  0
 83 84  1  0  0  0  0
 83 85  1  0  0  0  0
 85 86  1  0  0  0  0
 86 87  1  0  0  0  0
 85 88  2  0  0  0  0
 79 89  1  0  0  0  0
 89 90  2  0  0  0  0
 90 91  1  0  0  0  0
 91 92  2  0  0  0  0
 92 93  1  0  0  0  0
 93 94  2  0  0  0  0
 94 95  1  0  0  0  0
 95 96  2  0  0  0  0
 96 97  1  0  0  0  0
 97 98  1  0  0  0  0
 98 99  1  0  0  0  0
 96100  1  0  0  0  0
100101  1  0  0  0  0
100102  2  0  0  0  0
 92103  1  0  0  0  0
103104  2  0  0  0  0
104105  1  0  0  0  0
105106  1  0  0  0  0
106107  2  0  0  0  0
107108  1  0  0  0  0
108109  2  0  0  0  0
109110  1  0  0  0  0
110111  1  0  0  0  0
111112  1  0  0  0  0
109113  1  0  0  0  0
113114  2  0  0  0  0
113115  1  0  0  0  0
105116  2  0  0  0  0
116117  1  0  0  0  0
104118  1  0  0  0  0
118119  2  0  0  0  0
119120  1  0  0  0  0
119121  1  0  0  0  0
121122  2  0  0  0  0
122123  1  0  0  0  0
123124  2  0  0  0  0
124125  1  0  0  0  0
125126  2  0  0  0  0
126127  1  0  0  0  0
127128  2  0  0  0  0
128129  1  0  0  0  0
129130  1  0  0  0  0
130131  1  0  0  0  0
128132  1  0  0  0  0
132133  1  0  0  0  0
132134  2  0  0  0  0
124135  1  0  0  0  0
135136  2  0  0  0  0
136137  1  0  0  0  0
137138  1  0  0  0  0
138139  2  0  0  0  0
139140  1  0  0  0  0
140141  2  0  0  0  0
141142  1  0  0  0  0
142143  1  0  0  0  0
143144  1  0  0  0  0
141145  1  0  0  0  0
145146  2  0  0  0  0
145147  1  0  0  0  0
137148  2  0  0  0  0
148149  1  0  0  0  0
136150  1  0  0  0  0
150151  2  0  0  0  0
151152  1  0  0  0  0
 29  1  1  0  0  0  0
 37 33  2  0  0  0  0
 73 45  1  0  0  0  0
 81 77  2  0  0  0  0
117 89  1  0  0  0  0
149121  1  0  0  0  0
 28  3  1  0  0  0  0
 44 36  1  0  0  0  0
 72 47  1  0  0  0  0
 88 80  1  0  0  0  0
116 91  1  0  0  0  0
148123  1  0  0  0  0
 14  5  1  0  0  0  0
 32 15  1  0  0  0  0
 58 49  1  0  0  0  0
 76 59  1  0  0  0  0
102 93  1  0  0  0  0
120103  1  0  0  0  0
134125  1  0  0  0  0
152135  1  0  0  0  0
 26 18  1  0  0  0  0
 70 62  1  0  0  0  0
114106  1  0  0  0  0
146138  1  0  0  0  0
  1153  1  0  0  0  0
  2154  1  0  0  0  0
  6155  1  0  0  0  0
  7156  1  0  0  0  0
 10157  1  0  0  0  0
 10158  1  0  0  0  0
 11159  1  0  0  0  0
 11160  1  0  0  0  0
 11161  1  0  0  0  0
 14162  1  0  0  0  0
 19163  1  0  0  0  0
 20164  1  0  0  0  0
 23165  1  0  0  0  0
 23166  1  0  0  0  0
 24167  1  0  0  0  0
 24168  1  0  0  0  0
 24169  1  0  0  0  0
 26170  1  0  0  0  0
 30171  1  0  0  0  0
 38172  1  0  0  0  0
 40173  1  0  0  0  0
 40174  1  0  0  0  0
 40175  1  0  0  0  0
 43176  1  0  0  0  0
 43177  1  0  0  0  0
 43178  1  0  0  0  0
 44179  1  0  0  0  0
 46180  1  0  0  0  0
 50181  1  0  0  0  0
 51182  1  0  0  0  0
 54183  1  0  0  0  0
 54184  1  0  0  0  0
 55185  1  0  0  0  0
 55186  1  0  0  0  0
 55187  1  0  0  0  0
 58188  1  0  0  0  0
 63189  1  0  0  0  0
 64190  1  0  0  0  0
 67191  1  0  0  0  0
 67192  1  0  0  0  0
 68193  1  0  0  0  0
 68194  1  0  0  0  0
 68195  1  0  0  0  0
 70196  1  0  0  0  0
 74197  1  0  0  0  0
 82198  1  0  0  0  0
 84199  1  0  0  0  0
 84200  1  0  0  0  0
 84201  1  0  0  0  0
 87202  1  0  0  0  0
 87203  1  0  0  0  0
 87204  1  0  0  0  0
 88205  1  0  0  0  0
 90206  1  0  0  0  0
 94207  1  0  0  0  0
 95208  1  0  0  0  0
 98209  1  0  0  0  0
 98210  1  0  0  0  0
 99211  1  0  0  0  0
 99212  1  0  0  0  0
 99213  1  0  0  0  0
102214  1  0  0  0  0
107215  1  0  0  0  0
108216  1  0  0  0  0
111217  1  0  0  0  0
111218  1  0  0  0  0
112219  1  0  0  0  0
112220  1  0  0  0  0
112221  1  0  0  0  0
114222  1  0  0  0  0
118223  1  0  0  0  0
122224  1  0  0  0  0
126225  1  0  0  0  0
127226  1  0  0  0  0
130227  1  0  0  0  0
130228  1  0  0  0  0
131229  1  0  0  0  0
131230  1  0  0  0  0
131231  1  0  0  0  0
134232  1  0  0  0  0
139233  1  0  0  0  0
140234  1  0  0  0  0
143235  1  0  0  0  0
143236  1  0  0  0  0
144237  1  0  0  0  0
144238  1  0  0  0  0
144239  1  0  0  0  0
146240  1  0  0  0  0
150241  1  0  0  0  0
151242  1  0  0  0  0
M  END
