
  xtb     03032216193D
 energy: -416.015544692462 gnorm: 0.000351060142 xtb: 6.4.1 (unknown)
242265  0     0  0            999 V2000
    1.7175   -0.7463   12.5230 C   0  0  0  0  0  0  0  0  0  0  0  0
    0.1649   -0.6165   11.8322 S   0  0  0  0  0  0  0  0  0  0  0  0
    0.7836   -0.7866   10.2128 C   0  0  0  0  0  0  0  0  0  0  0  0
    2.1711   -0.9389   10.2377 C   0  0  0  0  0  0  0  0  0  0  0  0
    2.6972   -0.9126   11.5721 C   0  0  0  0  0  0  0  0  0  0  0  0
    4.0923   -1.0493   11.7781 C   0  0  0  0  0  0  0  0  0  0  0  0
    4.9353   -1.2011   10.7228 C   0  0  0  0  0  0  0  0  0  0  0  0
    6.4130   -1.3466   10.8933 C   0  0  0  0  0  0  0  0  0  0  0  0
    4.4045   -1.2227    9.3884 C   0  0  0  0  0  0  0  0  0  0  0  0
    5.3412   -1.3751    8.4176 O   0  0  0  0  0  0  0  0  0  0  0  0
    4.9214   -1.4193    7.0750 C   0  0  0  0  0  0  0  0  0  0  0  0
    3.0614   -1.0954    9.1550 C   0  0  0  0  0  0  0  0  0  0  0  0
   -0.1349   -0.7477    9.1293 C   0  0  0  0  0  0  0  0  0  0  0  0
   -1.4762   -0.4887    9.2086 C   0  0  0  0  0  0  0  0  0  0  0  0
   -2.1520   -0.5158    7.9646 C   0  0  0  0  0  0  0  0  0  0  0  0
   -3.5124   -0.2650    7.7088 C   0  0  0  0  0  0  0  0  0  0  0  0
   -4.4538    0.0087    8.8004 C   0  0  0  0  0  0  0  0  0  0  0  0
   -4.5325   -0.8398    9.9014 C   0  0  0  0  0  0  0  0  0  0  0  0
   -5.4158   -0.5927   10.9339 C   0  0  0  0  0  0  0  0  0  0  0  0
   -6.2454    0.5227   10.9091 C   0  0  0  0  0  0  0  0  0  0  0  0
   -7.4170    0.9522   12.1531 S   0  0  0  0  0  0  0  0  0  0  0  0
   -6.9033   -0.0300   13.6044 C   0  0  0  0  0  0  0  0  0  0  0  0
   -5.5845    0.4453   14.1840 C   0  0  0  0  0  0  0  0  0  0  0  0
   -6.1666    1.3563    9.7922 C   0  0  0  0  0  0  0  0  0  0  0  0
   -6.9613    2.4431    9.7304 F   0  0  0  0  0  0  0  0  0  0  0  0
   -5.2980    1.1161    8.7518 C   0  0  0  0  0  0  0  0  0  0  0  0
   -3.9122   -0.2950    6.3801 C   0  0  0  0  0  0  0  0  0  0  0  0
   -3.0273   -0.6117    5.3218 C   0  0  0  0  0  0  0  0  0  0  0  0
   -1.6658   -0.8566    5.5712 C   0  0  0  0  0  0  0  0  0  0  0  0
   -0.7355   -1.1077    4.4630 C   0  0  0  0  0  0  0  0  0  0  0  0
    0.4445   -0.3744    4.3394 C   0  0  0  0  0  0  0  0  0  0  0  0
    1.2634   -0.5337    3.2423 C   0  0  0  0  0  0  0  0  0  0  0  0
    0.9443   -1.4302    2.2234 C   0  0  0  0  0  0  0  0  0  0  0  0
    2.0410   -1.5232    0.8393 S   0  0  0  0  0  0  0  0  0  0  0  0
    0.9301   -1.8947   -0.5760 C   0  0  0  0  0  0  0  0  0  0  0  0
    1.5805   -1.3958   -1.8509 C   0  0  0  0  0  0  0  0  0  0  0  0
   -0.2002   -2.2036    2.3913 C   0  0  0  0  0  0  0  0  0  0  0  0
   -1.0338   -2.0467    3.4799 C   0  0  0  0  0  0  0  0  0  0  0  0
   -0.5429   -3.1399    1.4765 F   0  0  0  0  0  0  0  0  0  0  0  0
   -1.2644   -0.7870    6.8934 C   0  0  0  0  0  0  0  0  0  0  0  0
    0.3599   -1.0424    7.4702 S   0  0  0  0  0  0  0  0  0  0  0  0
   -3.6807   -0.5763    4.0675 C   0  0  0  0  0  0  0  0  0  0  0  0
   -5.0033   -0.2578    4.1392 C   0  0  0  0  0  0  0  0  0  0  0  0
   -5.5268    0.0228    5.7815 S   0  0  0  0  0  0  0  0  0  0  0  0
   -5.7961   -0.1141    2.9486 C   0  0  0  0  0  0  0  0  0  0  0  0
   -5.6558   -0.9221    1.8621 C   0  0  0  0  0  0  0  0  0  0  0  0
   -6.2026   -0.3785    0.6742 C   0  0  0  0  0  0  0  0  0  0  0  0
   -6.0364   -0.8545   -0.6339 C   0  0  0  0  0  0  0  0  0  0  0  0
   -5.2895   -2.0780   -0.9581 C   0  0  0  0  0  0  0  0  0  0  0  0
   -3.9922   -2.2702   -0.4855 C   0  0  0  0  0  0  0  0  0  0  0  0
   -3.2432   -3.3484   -0.9059 C   0  0  0  0  0  0  0  0  0  0  0  0
   -3.7609   -4.2792   -1.8035 C   0  0  0  0  0  0  0  0  0  0  0  0
   -2.7087   -5.6086   -2.3116 S   0  0  0  0  0  0  0  0  0  0  0  0
   -3.0027   -5.6969   -4.1184 C   0  0  0  0  0  0  0  0  0  0  0  0
   -2.7031   -4.3827   -4.8108 C   0  0  0  0  0  0  0  0  0  0  0  0
   -5.0759   -4.1053   -2.2243 C   0  0  0  0  0  0  0  0  0  0  0  0
   -5.6626   -5.0023   -3.0446 F   0  0  0  0  0  0  0  0  0  0  0  0
   -5.8270   -3.0154   -1.8322 C   0  0  0  0  0  0  0  0  0  0  0  0
   -6.4279   -0.0050   -1.6522 C   0  0  0  0  0  0  0  0  0  0  0  0
   -6.9625    1.2898   -1.4374 C   0  0  0  0  0  0  0  0  0  0  0  0
   -7.2191    1.7217   -0.1237 C   0  0  0  0  0  0  0  0  0  0  0  0
   -7.7717    3.0516    0.1710 C   0  0  0  0  0  0  0  0  0  0  0  0
   -8.9074    3.1767    0.9685 C   0  0  0  0  0  0  0  0  0  0  0  0
   -9.4308    4.4194    1.2553 C   0  0  0  0  0  0  0  0  0  0  0  0
   -8.8472    5.5828    0.7589 C   0  0  0  0  0  0  0  0  0  0  0  0
   -9.6334    7.1226    1.1395 S   0  0  0  0  0  0  0  0  0  0  0  0
   -8.2330    8.2251    1.5613 C   0  0  0  0  0  0  0  0  0  0  0  0
   -7.4112    7.6801    2.7118 C   0  0  0  0  0  0  0  0  0  0  0  0
   -7.7185    5.4420   -0.0418 C   0  0  0  0  0  0  0  0  0  0  0  0
   -7.1722    4.2058   -0.3220 C   0  0  0  0  0  0  0  0  0  0  0  0
   -7.1117    6.5230   -0.5832 F   0  0  0  0  0  0  0  0  0  0  0  0
   -6.8232    0.8737    0.9020 C   0  0  0  0  0  0  0  0  0  0  0  0
   -6.7567    1.3108    2.5953 S   0  0  0  0  0  0  0  0  0  0  0  0
   -6.9574    2.0649   -2.6265 C   0  0  0  0  0  0  0  0  0  0  0  0
   -6.3551    1.4415   -3.6882 C   0  0  0  0  0  0  0  0  0  0  0  0
   -6.0240   -0.2548   -3.3280 S   0  0  0  0  0  0  0  0  0  0  0  0
   -5.6491    2.0152   -4.7828 C   0  0  0  0  0  0  0  0  0  0  0  0
   -4.5159    0.9818   -5.6027 S   0  0  0  0  0  0  0  0  0  0  0  0
   -3.4799    2.3099   -6.0284 C   0  0  0  0  0  0  0  0  0  0  0  0
   -4.0813    3.5202   -5.6927 C   0  0  0  0  0  0  0  0  0  0  0  0
   -5.3395    3.3609   -5.0273 C   0  0  0  0  0  0  0  0  0  0  0  0
   -6.0492    4.5189   -4.6496 C   0  0  0  0  0  0  0  0  0  0  0  0
   -5.5330    5.7631   -4.8689 C   0  0  0  0  0  0  0  0  0  0  0  0
   -6.2659    7.0021   -4.4715 C   0  0  0  0  0  0  0  0  0  0  0  0
   -4.2533    5.9069   -5.4974 C   0  0  0  0  0  0  0  0  0  0  0  0
   -3.8428    7.1914   -5.6491 O   0  0  0  0  0  0  0  0  0  0  0  0
   -2.5960    7.4303   -6.2549 C   0  0  0  0  0  0  0  0  0  0  0  0
   -3.5506    4.8073   -5.9128 C   0  0  0  0  0  0  0  0  0  0  0  0
   -2.1035    1.9901   -6.2387 C   0  0  0  0  0  0  0  0  0  0  0  0
   -1.5731    0.9065   -6.8713 C   0  0  0  0  0  0  0  0  0  0  0  0
   -0.2329    0.6187   -6.4999 C   0  0  0  0  0  0  0  0  0  0  0  0
    0.5648   -0.4707   -6.8876 C   0  0  0  0  0  0  0  0  0  0  0  0
    0.1067   -1.4744   -7.8577 C   0  0  0  0  0  0  0  0  0  0  0  0
    0.9019   -1.8172   -8.9495 C   0  0  0  0  0  0  0  0  0  0  0  0
    0.4783   -2.7638   -9.8568 C   0  0  0  0  0  0  0  0  0  0  0  0
   -0.7398   -3.4239   -9.7022 C   0  0  0  0  0  0  0  0  0  0  0  0
   -1.1460   -4.6549  -10.9046 S   0  0  0  0  0  0  0  0  0  0  0  0
   -2.9554   -4.4930  -11.1338 C   0  0  0  0  0  0  0  0  0  0  0  0
   -3.3521   -3.0957  -11.5654 C   0  0  0  0  0  0  0  0  0  0  0  0
   -1.5016   -3.1011   -8.5836 C   0  0  0  0  0  0  0  0  0  0  0  0
   -2.6674   -3.7394   -8.3298 F   0  0  0  0  0  0  0  0  0  0  0  0
   -1.1048   -2.1342   -7.6821 C   0  0  0  0  0  0  0  0  0  0  0  0
    1.7903   -0.6105   -6.2504 C   0  0  0  0  0  0  0  0  0  0  0  0
    2.2237    0.2658   -5.2287 C   0  0  0  0  0  0  0  0  0  0  0  0
    1.4514    1.3833   -4.8741 C   0  0  0  0  0  0  0  0  0  0  0  0
    1.8734    2.1790   -3.7113 C   0  0  0  0  0  0  0  0  0  0  0  0
    1.0738    2.2113   -2.5708 C   0  0  0  0  0  0  0  0  0  0  0  0
    1.5533    2.7531   -1.3953 C   0  0  0  0  0  0  0  0  0  0  0  0
    2.8352    3.2824   -1.3288 C   0  0  0  0  0  0  0  0  0  0  0  0
    3.5104    3.8439    0.2169 S   0  0  0  0  0  0  0  0  0  0  0  0
    3.5027    2.2425    1.1106 C   0  0  0  0  0  0  0  0  0  0  0  0
    4.4252    1.2296    0.4625 C   0  0  0  0  0  0  0  0  0  0  0  0
    3.5902    3.3265   -2.4952 C   0  0  0  0  0  0  0  0  0  0  0  0
    3.1304    2.7722   -3.6740 C   0  0  0  0  0  0  0  0  0  0  0  0
    4.8190    3.8713   -2.4813 F   0  0  0  0  0  0  0  0  0  0  0  0
    0.2478    1.5408   -5.5337 C   0  0  0  0  0  0  0  0  0  0  0  0
   -0.9149    2.7999   -5.2121 S   0  0  0  0  0  0  0  0  0  0  0  0
    3.3795   -0.2176   -4.5695 C   0  0  0  0  0  0  0  0  0  0  0  0
    3.8384   -1.3999   -5.0624 C   0  0  0  0  0  0  0  0  0  0  0  0
    2.8847   -1.9648   -6.4228 S   0  0  0  0  0  0  0  0  0  0  0  0
    4.8906   -2.1803   -4.4915 C   0  0  0  0  0  0  0  0  0  0  0  0
    5.6305   -3.1869   -5.0281 C   0  0  0  0  0  0  0  0  0  0  0  0
    6.5464   -3.7692   -4.1087 C   0  0  0  0  0  0  0  0  0  0  0  0
    7.4897   -4.7819   -4.3405 C   0  0  0  0  0  0  0  0  0  0  0  0
    7.6105   -5.4324   -5.6507 C   0  0  0  0  0  0  0  0  0  0  0  0
    6.4945   -5.9667   -6.2938 C   0  0  0  0  0  0  0  0  0  0  0  0
    6.6172   -6.5676   -7.5276 C   0  0  0  0  0  0  0  0  0  0  0  0
    7.8513   -6.6682   -8.1688 C   0  0  0  0  0  0  0  0  0  0  0  0
    7.8779   -7.4972   -9.7301 S   0  0  0  0  0  0  0  0  0  0  0  0
    9.1142   -6.5771  -10.7193 C   0  0  0  0  0  0  0  0  0  0  0  0
    8.7600   -5.1096  -10.8510 C   0  0  0  0  0  0  0  0  0  0  0  0
    8.9606   -6.1608   -7.4994 C   0  0  0  0  0  0  0  0  0  0  0  0
   10.1981   -6.2519   -8.0346 F   0  0  0  0  0  0  0  0  0  0  0  0
    8.8503   -5.5423   -6.2704 C   0  0  0  0  0  0  0  0  0  0  0  0
    8.2943   -5.1422   -3.2670 C   0  0  0  0  0  0  0  0  0  0  0  0
    8.1788   -4.5662   -1.9783 C   0  0  0  0  0  0  0  0  0  0  0  0
    7.2411   -3.5505   -1.7463 C   0  0  0  0  0  0  0  0  0  0  0  0
    7.0650   -2.9214   -0.4302 C   0  0  0  0  0  0  0  0  0  0  0  0
    5.7993   -2.8382    0.1490 C   0  0  0  0  0  0  0  0  0  0  0  0
    5.6233   -2.2272    1.3700 C   0  0  0  0  0  0  0  0  0  0  0  0
    6.6957   -1.6741    2.0695 C   0  0  0  0  0  0  0  0  0  0  0  0
    6.3073   -0.9589    3.6397 S   0  0  0  0  0  0  0  0  0  0  0  0
    7.5355    0.3744    3.9033 C   0  0  0  0  0  0  0  0  0  0  0  0
    7.4536    1.4493    2.8391 C   0  0  0  0  0  0  0  0  0  0  0  0
    7.9569   -1.7909    1.4946 C   0  0  0  0  0  0  0  0  0  0  0  0
    8.1454   -2.3896    0.2638 C   0  0  0  0  0  0  0  0  0  0  0  0
    9.0600   -1.3213    2.1220 F   0  0  0  0  0  0  0  0  0  0  0  0
    6.4582   -3.1733   -2.8270 C   0  0  0  0  0  0  0  0  0  0  0  0
    5.2811   -1.8908   -2.8026 S   0  0  0  0  0  0  0  0  0  0  0  0
    9.0659   -5.1819   -1.0458 C   0  0  0  0  0  0  0  0  0  0  0  0
    9.8175   -6.1539   -1.6004 C   0  0  0  0  0  0  0  0  0  0  0  0
    9.5062   -6.3978   -3.2845 S   0  0  0  0  0  0  0  0  0  0  0  0
    1.8326   -0.6927   13.5871 H   0  0  0  0  0  0  0  0  0  0  0  0
    4.4727   -1.0291   12.7884 H   0  0  0  0  0  0  0  0  0  0  0  0
    6.9293   -0.5454   10.3669 H   0  0  0  0  0  0  0  0  0  0  0  0
    6.7474   -2.2867   10.4577 H   0  0  0  0  0  0  0  0  0  0  0  0
    6.6862   -1.3199   11.9445 H   0  0  0  0  0  0  0  0  0  0  0  0
    5.8238   -1.5619    6.4834 H   0  0  0  0  0  0  0  0  0  0  0  0
    4.4364   -0.4859    6.7736 H   0  0  0  0  0  0  0  0  0  0  0  0
    4.2370   -2.2532    6.8934 H   0  0  0  0  0  0  0  0  0  0  0  0
    2.6724   -1.1109    8.1523 H   0  0  0  0  0  0  0  0  0  0  0  0
   -1.9612   -0.2587   10.1403 H   0  0  0  0  0  0  0  0  0  0  0  0
   -3.9111   -1.7218    9.9388 H   0  0  0  0  0  0  0  0  0  0  0  0
   -5.4578   -1.2859   11.7583 H   0  0  0  0  0  0  0  0  0  0  0  0
   -7.7164    0.1238   14.3139 H   0  0  0  0  0  0  0  0  0  0  0  0
   -6.8820   -1.0831   13.3268 H   0  0  0  0  0  0  0  0  0  0  0  0
   -4.7782    0.3400   13.4612 H   0  0  0  0  0  0  0  0  0  0  0  0
   -5.6560    1.4928   14.4669 H   0  0  0  0  0  0  0  0  0  0  0  0
   -5.3369   -0.1385   15.0685 H   0  0  0  0  0  0  0  0  0  0  0  0
   -5.2687    1.8071    7.9244 H   0  0  0  0  0  0  0  0  0  0  0  0
    0.7015    0.3545    5.0919 H   0  0  0  0  0  0  0  0  0  0  0  0
    2.1659    0.0500    3.1458 H   0  0  0  0  0  0  0  0  0  0  0  0
   -0.0132   -1.3826   -0.3898 H   0  0  0  0  0  0  0  0  0  0  0  0
    0.7670   -2.9709   -0.6126 H   0  0  0  0  0  0  0  0  0  0  0  0
    0.9390   -1.6139   -2.7025 H   0  0  0  0  0  0  0  0  0  0  0  0
    2.5414   -1.8809   -2.0059 H   0  0  0  0  0  0  0  0  0  0  0  0
    1.7431   -0.3207   -1.8058 H   0  0  0  0  0  0  0  0  0  0  0  0
   -1.9017   -2.6829    3.5622 H   0  0  0  0  0  0  0  0  0  0  0  0
   -3.1764   -0.7275    3.1310 H   0  0  0  0  0  0  0  0  0  0  0  0
   -5.1455   -1.8670    1.9007 H   0  0  0  0  0  0  0  0  0  0  0  0
   -3.5525   -1.5399    0.1770 H   0  0  0  0  0  0  0  0  0  0  0  0
   -2.2328   -3.4846   -0.5533 H   0  0  0  0  0  0  0  0  0  0  0  0
   -2.3175   -6.4787   -4.4458 H   0  0  0  0  0  0  0  0  0  0  0  0
   -4.0244   -6.0254   -4.2945 H   0  0  0  0  0  0  0  0  0  0  0  0
   -2.8418   -4.5007   -5.8829 H   0  0  0  0  0  0  0  0  0  0  0  0
   -3.3725   -3.5972   -4.4625 H   0  0  0  0  0  0  0  0  0  0  0  0
   -1.6766   -4.0746   -4.6196 H   0  0  0  0  0  0  0  0  0  0  0  0
   -6.8355   -2.9164   -2.2030 H   0  0  0  0  0  0  0  0  0  0  0  0
   -9.3834    2.2907    1.3599 H   0  0  0  0  0  0  0  0  0  0  0  0
  -10.3101    4.5126    1.8731 H   0  0  0  0  0  0  0  0  0  0  0  0
   -7.6307    8.3899    0.6706 H   0  0  0  0  0  0  0  0  0  0  0  0
   -8.7242    9.1587    1.8353 H   0  0  0  0  0  0  0  0  0  0  0  0
   -8.0414    7.5004    3.5802 H   0  0  0  0  0  0  0  0  0  0  0  0
   -6.9292    6.7437    2.4360 H   0  0  0  0  0  0  0  0  0  0  0  0
   -6.6390    8.3976    2.9823 H   0  0  0  0  0  0  0  0  0  0  0  0
   -6.2712    4.1603   -0.9146 H   0  0  0  0  0  0  0  0  0  0  0  0
   -7.2902    3.0835   -2.6497 H   0  0  0  0  0  0  0  0  0  0  0  0
   -7.0299    4.4243   -4.2117 H   0  0  0  0  0  0  0  0  0  0  0  0
   -6.4067    7.6489   -5.3357 H   0  0  0  0  0  0  0  0  0  0  0  0
   -7.2330    6.7617   -4.0391 H   0  0  0  0  0  0  0  0  0  0  0  0
   -5.6804    7.5600   -3.7423 H   0  0  0  0  0  0  0  0  0  0  0  0
   -2.4693    8.5116   -6.2529 H   0  0  0  0  0  0  0  0  0  0  0  0
   -2.5754    7.0651   -7.2867 H   0  0  0  0  0  0  0  0  0  0  0  0
   -1.7810    6.9671   -5.6899 H   0  0  0  0  0  0  0  0  0  0  0  0
   -2.5998    4.8890   -6.4137 H   0  0  0  0  0  0  0  0  0  0  0  0
   -2.1422    0.3100   -7.5609 H   0  0  0  0  0  0  0  0  0  0  0  0
    1.8471   -1.3182   -9.0984 H   0  0  0  0  0  0  0  0  0  0  0  0
    1.0887   -3.0147  -10.7100 H   0  0  0  0  0  0  0  0  0  0  0  0
   -3.1706   -5.2214  -11.9157 H   0  0  0  0  0  0  0  0  0  0  0  0
   -3.4594   -4.7968  -10.2190 H   0  0  0  0  0  0  0  0  0  0  0  0
   -4.4202   -3.0662  -11.7712 H   0  0  0  0  0  0  0  0  0  0  0  0
   -3.1339   -2.3705  -10.7836 H   0  0  0  0  0  0  0  0  0  0  0  0
   -2.8136   -2.8062  -12.4655 H   0  0  0  0  0  0  0  0  0  0  0  0
   -1.7302   -1.9363   -6.8250 H   0  0  0  0  0  0  0  0  0  0  0  0
    0.0868    1.7749   -2.5993 H   0  0  0  0  0  0  0  0  0  0  0  0
    0.9406    2.7475   -0.5065 H   0  0  0  0  0  0  0  0  0  0  0  0
    3.8377    2.5010    2.1147 H   0  0  0  0  0  0  0  0  0  0  0  0
    2.4775    1.8774    1.1580 H   0  0  0  0  0  0  0  0  0  0  0  0
    4.4930    0.3376    1.0809 H   0  0  0  0  0  0  0  0  0  0  0  0
    4.0482    0.9320   -0.5141 H   0  0  0  0  0  0  0  0  0  0  0  0
    5.4207    1.6484    0.3346 H   0  0  0  0  0  0  0  0  0  0  0  0
    3.7628    2.7876   -4.5482 H   0  0  0  0  0  0  0  0  0  0  0  0
    3.8404    0.2764   -3.7332 H   0  0  0  0  0  0  0  0  0  0  0  0
    5.5399   -3.4906   -6.0556 H   0  0  0  0  0  0  0  0  0  0  0  0
    5.5290   -5.9222   -5.8136 H   0  0  0  0  0  0  0  0  0  0  0  0
    5.7509   -6.9769   -8.0239 H   0  0  0  0  0  0  0  0  0  0  0  0
    9.0778   -7.0781  -11.6868 H   0  0  0  0  0  0  0  0  0  0  0  0
   10.0995   -6.7223  -10.2823 H   0  0  0  0  0  0  0  0  0  0  0  0
    9.4700   -4.6204  -11.5148 H   0  0  0  0  0  0  0  0  0  0  0  0
    8.7968   -4.6123   -9.8835 H   0  0  0  0  0  0  0  0  0  0  0  0
    7.7591   -4.9935  -11.2616 H   0  0  0  0  0  0  0  0  0  0  0  0
    9.7422   -5.1466   -5.8103 H   0  0  0  0  0  0  0  0  0  0  0  0
    4.9469   -3.2654   -0.3549 H   0  0  0  0  0  0  0  0  0  0  0  0
    4.6395   -2.1694    1.8091 H   0  0  0  0  0  0  0  0  0  0  0  0
    8.5278   -0.0656    3.9654 H   0  0  0  0  0  0  0  0  0  0  0  0
    7.2614    0.7690    4.8822 H   0  0  0  0  0  0  0  0  0  0  0  0
    8.1581    2.2457    3.0699 H   0  0  0  0  0  0  0  0  0  0  0  0
    7.7024    1.0460    1.8598 H   0  0  0  0  0  0  0  0  0  0  0  0
    6.4517    1.8701    2.7970 H   0  0  0  0  0  0  0  0  0  0  0  0
    9.1431   -2.4238   -0.1465 H   0  0  0  0  0  0  0  0  0  0  0  0
    9.1138   -4.9089   -0.0075 H   0  0  0  0  0  0  0  0  0  0  0  0
   10.5585   -6.7662   -1.1247 H   0  0  0  0  0  0  0  0  0  0  0  0
  1  2  1  0  0  0  0
  2  3  1  0  0  0  0
  3  4  2  0  0  0  0
  4  5  1  0  0  0  0
  5  6  1  0  0  0  0
  6  7  2  0  0  0  0
  7  8  1  0  0  0  0
  7  9  1  0  0  0  0
  9 10  1  0  0  0  0
 10 11  1  0  0  0  0
  9 12  2  0  0  0  0
  3 13  1  0  0  0  0
 13 14  2  0  0  0  0
 14 15  1  0  0  0  0
 15 16  2  0  0  0  0
 16 17  1  0  0  0  0
 17 18  2  0  0  0  0
 18 19  1  0  0  0  0
 19 20  2  0  0  0  0
 20 21  1  0  0  0  0
 21 22  1  0  0  0  0
 22 23  1  0  0  0  0
 20 24  1  0  0  0  0
 24 25  1  0  0  0  0
 24 26  2  0  0  0  0
 16 27  1  0  0  0  0
 27 28  2  0  0  0  0
 28 29  1  0  0  0  0
 29 30  1  0  0  0  0
 30 31  2  0  0  0  0
 31 32  1  0  0  0  0
 32 33  2  0  0  0  0
 33 34  1  0  0  0  0
 34 35  1  0  0  0  0
 35 36  1  0  0  0  0
 33 37  1  0  0  0  0
 37 38  2  0  0  0  0
 37 39  1  0  0  0  0
 29 40  2  0  0  0  0
 40 41  1  0  0  0  0
 28 42  1  0  0  0  0
 42 43  2  0  0  0  0
 43 44  1  0  0  0  0
 43 45  1  0  0  0  0
 45 46  2  0  0  0  0
 46 47  1  0  0  0  0
 47 48  2  0  0  0  0
 48 49  1  0  0  0  0
 49 50  2  0  0  0  0
 50 51  1  0  0  0  0
 51 52  2  0  0  0  0
 52 53  1  0  0  0  0
 53 54  1  0  0  0  0
 54 55  1  0  0  0  0
 52 56  1  0  0  0  0
 56 57  1  0  0  0  0
 56 58  2  0  0  0  0
 48 59  1  0  0  0  0
 59 60  2  0  0  0  0
 60 61  1  0  0  0  0
 61 62  1  0  0  0  0
 62 63  2  0  0  0  0
 63 64  1  0  0  0  0
 64 65  2  0  0  0  0
 65 66  1  0  0  0  0
 66 67  1  0  0  0  0
 67 68  1  0  0  0  0
 65 69  1  0  0  0  0
 69 70  2  0  0  0  0
 69 71  1  0  0  0  0
 61 72  2  0  0  0  0
 72 73  1  0  0  0  0
 60 74  1  0  0  0  0
 74 75  2  0  0  0  0
 75 76  1  0  0  0  0
 75 77  1  0  0  0  0
 77 78  1  0  0  0  0
 78 79  1  0  0  0  0
 79 80  2  0  0  0  0
 80 81  1  0  0  0  0
 81 82  1  0  0  0  0
 82 83  2  0  0  0  0
 83 84  1  0  0  0  0
 83 85  1  0  0  0  0
 85 86  1  0  0  0  0
 86 87  1  0  0  0  0
 85 88  2  0  0  0  0
 79 89  1  0  0  0  0
 89 90  2  0  0  0  0
 90 91  1  0  0  0  0
 91 92  2  0  0  0  0
 92 93  1  0  0  0  0
 93 94  2  0  0  0  0
 94 95  1  0  0  0  0
 95 96  2  0  0  0  0
 96 97  1  0  0  0  0
 97 98  1  0  0  0  0
 98 99  1  0  0  0  0
 96100  1  0  0  0  0
100101  1  0  0  0  0
100102  2  0  0  0  0
 92103  1  0  0  0  0
103104  2  0  0  0  0
104105  1  0  0  0  0
105106  1  0  0  0  0
106107  2  0  0  0  0
107108  1  0  0  0  0
108109  2  0  0  0  0
109110  1  0  0  0  0
110111  1  0  0  0  0
111112  1  0  0  0  0
109113  1  0  0  0  0
113114  2  0  0  0  0
113115  1  0  0  0  0
105116  2  0  0  0  0
116117  1  0  0  0  0
104118  1  0  0  0  0
118119  2  0  0  0  0
119120  1  0  0  0  0
119121  1  0  0  0  0
121122  2  0  0  0  0
122123  1  0  0  0  0
123124  2  0  0  0  0
124125  1  0  0  0  0
125126  2  0  0  0  0
126127  1  0  0  0  0
127128  2  0  0  0  0
128129  1  0  0  0  0
129130  1  0  0  0  0
130131  1  0  0  0  0
128132  1  0  0  0  0
132133  1  0  0  0  0
132134  2  0  0  0  0
124135  1  0  0  0  0
135136  2  0  0  0  0
136137  1  0  0  0  0
137138  1  0  0  0  0
138139  2  0  0  0  0
139140  1  0  0  0  0
140141  2  0  0  0  0
141142  1  0  0  0  0
142143  1  0  0  0  0
143144  1  0  0  0  0
141145  1  0  0  0  0
145146  2  0  0  0  0
145147  1  0  0  0  0
137148  2  0  0  0  0
148149  1  0  0  0  0
136150  1  0  0  0  0
150151  2  0  0  0  0
151152  1  0  0  0  0
  5  1  2  0  0  0  0
 41 13  1  0  0  0  0
 73 45  1  0  0  0  0
 81 77  2  0  0  0  0
117 89  1  0  0  0  0
149121  1  0  0  0  0
 12  4  1  0  0  0  0
 40 15  1  0  0  0  0
 72 47  1  0  0  0  0
 88 80  1  0  0  0  0
116 91  1  0  0  0  0
148123  1  0  0  0  0
 26 17  1  0  0  0  0
 44 27  1  0  0  0  0
 58 49  1  0  0  0  0
 76 59  1  0  0  0  0
102 93  1  0  0  0  0
120103  1  0  0  0  0
134125  1  0  0  0  0
152135  1  0  0  0  0
 38 30  1  0  0  0  0
 70 62  1  0  0  0  0
114106  1  0  0  0  0
146138  1  0  0  0  0
  1153  1  0  0  0  0
  6154  1  0  0  0  0
  8155  1  0  0  0  0
  8156  1  0  0  0  0
  8157  1  0  0  0  0
 11158  1  0  0  0  0
 11159  1  0  0  0  0
 11160  1  0  0  0  0
 12161  1  0  0  0  0
 14162  1  0  0  0  0
 18163  1  0  0  0  0
 19164  1  0  0  0  0
 22165  1  0  0  0  0
 22166  1  0  0  0  0
 23167  1  0  0  0  0
 23168  1  0  0  0  0
 23169  1  0  0  0  0
 26170  1  0  0  0  0
 31171  1  0  0  0  0
 32172  1  0  0  0  0
 35173  1  0  0  0  0
 35174  1  0  0  0  0
 36175  1  0  0  0  0
 36176  1  0  0  0  0
 36177  1  0  0  0  0
 38178  1  0  0  0  0
 42179  1  0  0  0  0
 46180  1  0  0  0  0
 50181  1  0  0  0  0
 51182  1  0  0  0  0
 54183  1  0  0  0  0
 54184  1  0  0  0  0
 55185  1  0  0  0  0
 55186  1  0  0  0  0
 55187  1  0  0  0  0
 58188  1  0  0  0  0
 63189  1  0  0  0  0
 64190  1  0  0  0  0
 67191  1  0  0  0  0
 67192  1  0  0  0  0
 68193  1  0  0  0  0
 68194  1  0  0  0  0
 68195  1  0  0  0  0
 70196  1  0  0  0  0
 74197  1  0  0  0  0
 82198  1  0  0  0  0
 84199  1  0  0  0  0
 84200  1  0  0  0  0
 84201  1  0  0  0  0
 87202  1  0  0  0  0
 87203  1  0  0  0  0
 87204  1  0  0  0  0
 88205  1  0  0  0  0
 90206  1  0  0  0  0
 94207  1  0  0  0  0
 95208  1  0  0  0  0
 98209  1  0  0  0  0
 98210  1  0  0  0  0
 99211  1  0  0  0  0
 99212  1  0  0  0  0
 99213  1  0  0  0  0
102214  1  0  0  0  0
107215  1  0  0  0  0
108216  1  0  0  0  0
111217  1  0  0  0  0
111218  1  0  0  0  0
112219  1  0  0  0  0
112220  1  0  0  0  0
112221  1  0  0  0  0
114222  1  0  0  0  0
118223  1  0  0  0  0
122224  1  0  0  0  0
126225  1  0  0  0  0
127226  1  0  0  0  0
130227  1  0  0  0  0
130228  1  0  0  0  0
131229  1  0  0  0  0
131230  1  0  0  0  0
131231  1  0  0  0  0
134232  1  0  0  0  0
139233  1  0  0  0  0
140234  1  0  0  0  0
143235  1  0  0  0  0
143236  1  0  0  0  0
144237  1  0  0  0  0
144238  1  0  0  0  0
144239  1  0  0  0  0
146240  1  0  0  0  0
150241  1  0  0  0  0
151242  1  0  0  0  0
M  END
