
  xtb     03032220183D
 energy: -203.333183755798 gnorm: 0.000366915433 xtb: 6.4.1 (unknown)
114125  0     0  0            999 V2000
    9.1992   -2.1776    2.7372 C   0  0  0  0  0  0  0  0  0  0  0  0
    9.0200   -1.6423    1.1311 S   0  0  0  0  0  0  0  0  0  0  0  0
    7.3103   -1.3493    1.3327 C   0  0  0  0  0  0  0  0  0  0  0  0
    6.9244   -1.6509    2.6505 C   0  0  0  0  0  0  0  0  0  0  0  0
    8.0174   -2.1287    3.4424 C   0  0  0  0  0  0  0  0  0  0  0  0
    7.7994   -2.4878    4.7943 C   0  0  0  0  0  0  0  0  0  0  0  0
    6.5676   -2.3513    5.3550 C   0  0  0  0  0  0  0  0  0  0  0  0
    6.2901   -2.7188    6.7763 C   0  0  0  0  0  0  0  0  0  0  0  0
    5.4892   -1.8133    4.5753 C   0  0  0  0  0  0  0  0  0  0  0  0
    4.3285   -1.6749    5.2526 O   0  0  0  0  0  0  0  0  0  0  0  0
    3.2273   -1.0692    4.6126 C   0  0  0  0  0  0  0  0  0  0  0  0
    5.6659   -1.4800    3.2543 C   0  0  0  0  0  0  0  0  0  0  0  0
    6.5019   -0.9519    0.2477 C   0  0  0  0  0  0  0  0  0  0  0  0
    4.8141   -1.3394    0.2295 S   0  0  0  0  0  0  0  0  0  0  0  0
    4.5582   -0.6603   -1.3578 C   0  0  0  0  0  0  0  0  0  0  0  0
    5.7465   -0.0833   -1.8316 C   0  0  0  0  0  0  0  0  0  0  0  0
    6.8504   -0.2781   -0.9404 C   0  0  0  0  0  0  0  0  0  0  0  0
    8.0973    0.2715   -1.2718 C   0  0  0  0  0  0  0  0  0  0  0  0
    8.2479    0.9923   -2.4330 C   0  0  0  0  0  0  0  0  0  0  0  0
    9.5074    1.5420   -2.7569 C   0  0  0  0  0  0  0  0  0  0  0  0
   10.5412    1.9759   -2.9962 N   0  0  0  0  0  0  0  0  0  0  0  0
    7.1354    1.2342   -3.3001 C   0  0  0  0  0  0  0  0  0  0  0  0
    7.4075    1.9959   -4.3809 O   0  0  0  0  0  0  0  0  0  0  0  0
    6.3807    2.2565   -5.3094 C   0  0  0  0  0  0  0  0  0  0  0  0
    5.9057    0.7149   -2.9812 C   0  0  0  0  0  0  0  0  0  0  0  0
    3.2471   -0.7024   -1.8705 C   0  0  0  0  0  0  0  0  0  0  0  0
    1.9313   -0.7958   -0.7416 S   0  0  0  0  0  0  0  0  0  0  0  0
    0.7123   -0.7256   -1.9908 C   0  0  0  0  0  0  0  0  0  0  0  0
    1.3180   -0.6039   -3.2476 C   0  0  0  0  0  0  0  0  0  0  0  0
    2.7483   -0.6691   -3.1858 C   0  0  0  0  0  0  0  0  0  0  0  0
    3.4709   -0.7563   -4.3843 C   0  0  0  0  0  0  0  0  0  0  0  0
    2.8259   -0.5985   -5.5897 C   0  0  0  0  0  0  0  0  0  0  0  0
    3.5722   -0.6513   -6.7851 C   0  0  0  0  0  0  0  0  0  0  0  0
    4.2215   -0.6753   -7.7304 N   0  0  0  0  0  0  0  0  0  0  0  0
    1.4190   -0.3358   -5.6414 C   0  0  0  0  0  0  0  0  0  0  0  0
    0.9265   -0.1028   -6.8808 O   0  0  0  0  0  0  0  0  0  0  0  0
   -0.4526    0.1376   -7.0246 C   0  0  0  0  0  0  0  0  0  0  0  0
    0.6845   -0.3606   -4.4842 C   0  0  0  0  0  0  0  0  0  0  0  0
   -0.6353   -0.7444   -1.5750 C   0  0  0  0  0  0  0  0  0  0  0  0
   -0.9766   -0.1741    0.0302 S   0  0  0  0  0  0  0  0  0  0  0  0
   -2.6883   -0.4738   -0.1167 C   0  0  0  0  0  0  0  0  0  0  0  0
   -2.9848   -0.9481   -1.4054 C   0  0  0  0  0  0  0  0  0  0  0  0
   -1.8189   -1.1676   -2.2007 C   0  0  0  0  0  0  0  0  0  0  0  0
   -1.9608   -1.8318   -3.4370 C   0  0  0  0  0  0  0  0  0  0  0  0
   -3.1954   -2.1228   -3.9412 C   0  0  0  0  0  0  0  0  0  0  0  0
   -3.3737   -2.8315   -5.2453 C   0  0  0  0  0  0  0  0  0  0  0  0
   -4.3634   -1.7245   -3.2198 C   0  0  0  0  0  0  0  0  0  0  0  0
   -5.5348   -1.9771   -3.8563 O   0  0  0  0  0  0  0  0  0  0  0  0
   -6.7437   -1.7040   -3.1888 C   0  0  0  0  0  0  0  0  0  0  0  0
   -4.2563   -1.1615   -1.9728 C   0  0  0  0  0  0  0  0  0  0  0  0
   -3.4787   -0.2143    1.0195 C   0  0  0  0  0  0  0  0  0  0  0  0
   -2.8635    0.9247    2.1740 S   0  0  0  0  0  0  0  0  0  0  0  0
   -4.2052    0.7150    3.2673 C   0  0  0  0  0  0  0  0  0  0  0  0
   -5.1137   -0.2107    2.7359 C   0  0  0  0  0  0  0  0  0  0  0  0
   -4.6838   -0.7693    1.4883 C   0  0  0  0  0  0  0  0  0  0  0  0
   -5.4013   -1.8411    0.9419 C   0  0  0  0  0  0  0  0  0  0  0  0
   -6.5618   -2.2732    1.5423 C   0  0  0  0  0  0  0  0  0  0  0  0
   -7.2898   -3.3267    0.9517 C   0  0  0  0  0  0  0  0  0  0  0  0
   -7.8588   -4.1693    0.4204 N   0  0  0  0  0  0  0  0  0  0  0  0
   -7.0335   -1.6712    2.7516 C   0  0  0  0  0  0  0  0  0  0  0  0
   -8.1885   -2.1867    3.2327 O   0  0  0  0  0  0  0  0  0  0  0  0
   -8.7048   -1.6759    4.4381 C   0  0  0  0  0  0  0  0  0  0  0  0
   -6.3002   -0.6737    3.3405 C   0  0  0  0  0  0  0  0  0  0  0  0
   -4.2435    1.4518    4.4730 C   0  0  0  0  0  0  0  0  0  0  0  0
   -5.7384    1.8964    5.2393 S   0  0  0  0  0  0  0  0  0  0  0  0
   -4.9481    2.7903    6.4684 C   0  0  0  0  0  0  0  0  0  0  0  0
   -3.5820    2.7603    6.3315 C   0  0  0  0  0  0  0  0  0  0  0  0
   -3.1633    1.9877    5.1943 C   0  0  0  0  0  0  0  0  0  0  0  0
   -1.7906    1.7907    4.9863 C   0  0  0  0  0  0  0  0  0  0  0  0
   -0.8755    2.3713    5.8322 C   0  0  0  0  0  0  0  0  0  0  0  0
    0.4948    2.1168    5.6231 C   0  0  0  0  0  0  0  0  0  0  0  0
    1.5944    1.8605    5.4174 N   0  0  0  0  0  0  0  0  0  0  0  0
   -1.2910    3.2019    6.9283 C   0  0  0  0  0  0  0  0  0  0  0  0
   -0.2721    3.7350    7.6464 O   0  0  0  0  0  0  0  0  0  0  0  0
   -0.5833    4.5716    8.7330 C   0  0  0  0  0  0  0  0  0  0  0  0
   -2.6226    3.3781    7.1734 C   0  0  0  0  0  0  0  0  0  0  0  0
   10.1615   -2.4967    3.0850 H   0  0  0  0  0  0  0  0  0  0  0  0
    8.6294   -2.8643    5.3730 H   0  0  0  0  0  0  0  0  0  0  0  0
    5.9230   -1.8499    7.3200 H   0  0  0  0  0  0  0  0  0  0  0  0
    7.1858   -3.0961    7.2616 H   0  0  0  0  0  0  0  0  0  0  0  0
    5.5108   -3.4780    6.8186 H   0  0  0  0  0  0  0  0  0  0  0  0
    2.8977   -1.6503    3.7458 H   0  0  0  0  0  0  0  0  0  0  0  0
    3.4541   -0.0454    4.3051 H   0  0  0  0  0  0  0  0  0  0  0  0
    2.4329   -1.0423    5.3559 H   0  0  0  0  0  0  0  0  0  0  0  0
    4.8534   -1.0672    2.6817 H   0  0  0  0  0  0  0  0  0  0  0  0
    8.9434    0.1528   -0.6141 H   0  0  0  0  0  0  0  0  0  0  0  0
    5.5634    2.8243   -4.8538 H   0  0  0  0  0  0  0  0  0  0  0  0
    5.9865    1.3328   -5.7448 H   0  0  0  0  0  0  0  0  0  0  0  0
    6.8426    2.8544   -6.0924 H   0  0  0  0  0  0  0  0  0  0  0  0
    5.0414    0.9442   -3.5800 H   0  0  0  0  0  0  0  0  0  0  0  0
    4.5268   -0.9765   -4.3695 H   0  0  0  0  0  0  0  0  0  0  0  0
   -0.6131    0.2832   -8.0911 H   0  0  0  0  0  0  0  0  0  0  0  0
   -1.0469   -0.7141   -6.6790 H   0  0  0  0  0  0  0  0  0  0  0  0
   -0.7607    1.0378   -6.4835 H   0  0  0  0  0  0  0  0  0  0  0  0
   -0.3752   -0.1718   -4.4923 H   0  0  0  0  0  0  0  0  0  0  0  0
   -1.0771   -2.1452   -3.9701 H   0  0  0  0  0  0  0  0  0  0  0  0
   -2.4146   -3.1309   -5.6599 H   0  0  0  0  0  0  0  0  0  0  0  0
   -3.8877   -2.1845   -5.9554 H   0  0  0  0  0  0  0  0  0  0  0  0
   -3.9953   -3.7142   -5.1075 H   0  0  0  0  0  0  0  0  0  0  0  0
   -7.5323   -2.0041   -3.8765 H   0  0  0  0  0  0  0  0  0  0  0  0
   -6.8474   -0.6378   -2.9633 H   0  0  0  0  0  0  0  0  0  0  0  0
   -6.8336   -2.2829   -2.2640 H   0  0  0  0  0  0  0  0  0  0  0  0
   -5.1289   -0.8518   -1.4234 H   0  0  0  0  0  0  0  0  0  0  0  0
   -5.0301   -2.3576    0.0714 H   0  0  0  0  0  0  0  0  0  0  0  0
   -8.0128   -1.8397    5.2702 H   0  0  0  0  0  0  0  0  0  0  0  0
   -9.6249   -2.2286    4.6184 H   0  0  0  0  0  0  0  0  0  0  0  0
   -8.9294   -0.6079    4.3564 H   0  0  0  0  0  0  0  0  0  0  0  0
   -6.6069   -0.2448    4.2787 H   0  0  0  0  0  0  0  0  0  0  0  0
   -5.5320    3.2784    7.2219 H   0  0  0  0  0  0  0  0  0  0  0  0
   -1.4332    1.1660    4.1831 H   0  0  0  0  0  0  0  0  0  0  0  0
   -1.1408    4.0329    9.5060 H   0  0  0  0  0  0  0  0  0  0  0  0
    0.3738    4.8960    9.1370 H   0  0  0  0  0  0  0  0  0  0  0  0
   -1.1584    5.4460    8.4120 H   0  0  0  0  0  0  0  0  0  0  0  0
   -2.9787    3.9692    8.0015 H   0  0  0  0  0  0  0  0  0  0  0  0
  1  2  1  0  0  0  0
  2  3  1  0  0  0  0
  3  4  2  0  0  0  0
  4  5  1  0  0  0  0
  5  6  1  0  0  0  0
  6  7  2  0  0  0  0
  7  8  1  0  0  0  0
  7  9  1  0  0  0  0
  9 10  1  0  0  0  0
 10 11  1  0  0  0  0
  9 12  2  0  0  0  0
  3 13  1  0  0  0  0
 13 14  1  0  0  0  0
 14 15  1  0  0  0  0
 15 16  2  0  0  0  0
 16 17  1  0  0  0  0
 17 18  1  0  0  0  0
 18 19  2  0  0  0  0
 19 20  1  0  0  0  0
 20 21  3  0  0  0  0
 19 22  1  0  0  0  0
 22 23  1  0  0  0  0
 23 24  1  0  0  0  0
 22 25  2  0  0  0  0
 15 26  1  0  0  0  0
 26 27  1  0  0  0  0
 27 28  1  0  0  0  0
 28 29  2  0  0  0  0
 29 30  1  0  0  0  0
 30 31  1  0  0  0  0
 31 32  2  0  0  0  0
 32 33  1  0  0  0  0
 33 34  3  0  0  0  0
 32 35  1  0  0  0  0
 35 36  1  0  0  0  0
 36 37  1  0  0  0  0
 35 38  2  0  0  0  0
 28 39  1  0  0  0  0
 39 40  1  0  0  0  0
 40 41  1  0  0  0  0
 41 42  2  0  0  0  0
 42 43  1  0  0  0  0
 43 44  1  0  0  0  0
 44 45  2  0  0  0  0
 45 46  1  0  0  0  0
 45 47  1  0  0  0  0
 47 48  1  0  0  0  0
 48 49  1  0  0  0  0
 47 50  2  0  0  0  0
 41 51  1  0  0  0  0
 51 52  1  0  0  0  0
 52 53  1  0  0  0  0
 53 54  2  0  0  0  0
 54 55  1  0  0  0  0
 55 56  1  0  0  0  0
 56 57  2  0  0  0  0
 57 58  1  0  0  0  0
 58 59  3  0  0  0  0
 57 60  1  0  0  0  0
 60 61  1  0  0  0  0
 61 62  1  0  0  0  0
 60 63  2  0  0  0  0
 53 64  1  0  0  0  0
 64 65  1  0  0  0  0
 65 66  1  0  0  0  0
 66 67  2  0  0  0  0
 67 68  1  0  0  0  0
 68 69  1  0  0  0  0
 69 70  2  0  0  0  0
 70 71  1  0  0  0  0
 71 72  3  0  0  0  0
 70 73  1  0  0  0  0
 73 74  1  0  0  0  0
 74 75  1  0  0  0  0
 73 76  2  0  0  0  0
  5  1  2  0  0  0  0
 17 13  2  0  0  0  0
 30 26  2  0  0  0  0
 43 39  2  0  0  0  0
 55 51  2  0  0  0  0
 68 64  2  0  0  0  0
 12  4  1  0  0  0  0
 25 16  1  0  0  0  0
 38 29  1  0  0  0  0
 50 42  1  0  0  0  0
 63 54  1  0  0  0  0
 76 67  1  0  0  0  0
  1 77  1  0  0  0  0
  6 78  1  0  0  0  0
  8 79  1  0  0  0  0
  8 80  1  0  0  0  0
  8 81  1  0  0  0  0
 11 82  1  0  0  0  0
 11 83  1  0  0  0  0
 11 84  1  0  0  0  0
 12 85  1  0  0  0  0
 18 86  1  0  0  0  0
 24 87  1  0  0  0  0
 24 88  1  0  0  0  0
 24 89  1  0  0  0  0
 25 90  1  0  0  0  0
 31 91  1  0  0  0  0
 37 92  1  0  0  0  0
 37 93  1  0  0  0  0
 37 94  1  0  0  0  0
 38 95  1  0  0  0  0
 44 96  1  0  0  0  0
 46 97  1  0  0  0  0
 46 98  1  0  0  0  0
 46 99  1  0  0  0  0
 49100  1  0  0  0  0
 49101  1  0  0  0  0
 49102  1  0  0  0  0
 50103  1  0  0  0  0
 56104  1  0  0  0  0
 62105  1  0  0  0  0
 62106  1  0  0  0  0
 62107  1  0  0  0  0
 63108  1  0  0  0  0
 66109  1  0  0  0  0
 69110  1  0  0  0  0
 75111  1  0  0  0  0
 75112  1  0  0  0  0
 75113  1  0  0  0  0
 76114  1  0  0  0  0
M  END
