110

C          8.41060       -2.61740        1.88370
S          7.02320       -2.23900        2.80050
C          7.35620       -3.50490        3.93540
C          8.51420       -4.16730        3.59590
C          9.11430       -3.66010        2.41190
C         10.37770       -4.16450        1.77930
F         10.74080       -3.38610        0.74640
F         10.25070       -5.40370        1.28610
F         11.41250       -4.17260        2.62730
C          8.99670       -5.31250        4.43370
F          9.45340       -4.89230        5.62950
F          9.96980       -6.02700        3.87750
F          7.99540       -6.17220        4.70500
C          6.56570       -3.70090        5.13160
C          5.23030       -3.80180        5.21500
C          4.29620       -3.93740        4.13340
S          4.74070       -4.56010        2.57670
C          3.09590       -4.54510        2.00730
C          2.24230       -4.12240        3.01360
C          2.92850       -3.75540        4.19770
C          2.29780       -3.15420        5.41800
F          3.03540       -2.12270        5.88290
F          2.20570       -4.02600        6.43620
F          1.08010       -2.65660        5.21310
C          0.75140       -4.27780        2.97740
F          0.06480       -3.13140        2.85280
F          0.33450       -5.06650        1.97560
F          0.30910       -4.86620        4.10110
C          2.85510       -4.92630        0.64850
C          1.98670       -4.36850       -0.22990
C          1.20650       -3.19070       -0.08200
S         -0.30760       -3.11800       -0.92220
C         -0.74930       -1.59690       -0.21710
C          0.28500       -1.13700        0.62320
C          1.40210       -2.02290        0.66550
C          2.55360       -1.63640        1.38170
C          2.55680       -0.50720        2.14730
C          3.74640       -0.09730        2.95060
C          1.38150        0.30340        2.20970
O          1.47100        1.35990        3.04820
C          0.35420        2.20520        3.19780
C          0.28690        0.01160        1.43290
C         -1.97050       -0.96940       -0.55170
S         -2.15360        0.75030       -0.40110
C         -3.77820        0.72980       -1.00890
C         -4.15340       -0.56770       -1.37130
C         -3.13890       -1.53300       -1.09580
C         -3.41930       -2.89050       -1.35160
C         -4.60240       -3.27090       -1.91550
C         -4.92430       -4.70410       -2.18260
C         -5.56920       -2.28120       -2.28200
O         -6.67410       -2.76950       -2.88550
C         -7.70280       -1.87720       -3.25070
C         -5.34420       -0.95460       -2.01190
C         -4.49550        1.95280       -1.10690
S         -3.66500        3.37530       -1.68130
C         -5.09450        4.35270       -1.55880
C         -6.14960        3.60270       -1.08900
C         -5.81720        2.25180       -0.81370
C         -6.74060        1.33750       -0.06800
F         -6.09490        0.33680        0.54680
F         -7.40000        1.99060        0.89870
F         -7.67690        0.75540       -0.84210
C         -7.51510        4.20450       -0.94040
F         -7.75420        5.12080       -1.89960
F         -7.67140        4.84770        0.22840
F         -8.50370        3.31410       -1.03920
C         -5.06580        5.77240       -1.80480
C         -4.35480        6.39520       -2.75680
C         -3.67460        5.75720       -3.85870
S         -4.41330        4.43950       -4.70480
C         -3.14540        4.38040       -5.88380
C         -2.20920        5.36450       -5.63590
C         -2.50080        6.13090       -4.47640
C         -1.59230        7.17830       -3.90160
F         -1.71770        8.37030       -4.50420
F         -1.83980        7.39670       -2.59760
F         -0.30280        6.82750       -3.96690
C         -1.02210        5.60390       -6.52250
F          0.01530        4.80520       -6.21170
F         -1.29630        5.36480       -7.81740
F         -0.57850        6.86100       -6.48030
C         -3.15590        3.37480       -6.91580
C         -4.15870        2.52000       -7.09930
H          8.65170       -2.05570        1.00320
H          7.13860       -3.74980        6.04850
H          4.79500       -3.85570        6.20330
H          3.47360       -5.74060        0.29560
H          1.83980       -4.89320       -1.16590
H          3.45060       -2.22930        1.30330
H          3.50680       -0.13780        4.01230
H          4.59460       -0.74690        2.75200
H          4.01540        0.93180        2.72190
H          0.64770        2.94970        3.93580
H          0.10200        2.70520        2.25740
H         -0.51670        1.65370        3.56390
H         -0.58470        0.64090        1.45700
H         -2.69930       -3.64670       -1.08530
H         -5.84340       -4.97990       -1.66860
H         -4.11800       -5.35130       -1.85020
H         -5.09350       -4.85610       -3.24740
H         -8.09240       -1.33560       -2.38490
H         -7.35960       -1.16040       -4.00320
H         -8.49020       -2.49690       -3.67590
H         -6.05800       -0.19780       -2.28710
H         -5.64380        6.37500       -1.11720
H         -4.32200        7.47570       -2.75130
H         -2.28490        3.33030       -7.55190
H         -5.04220        2.54120       -6.48170
H         -4.12390        1.77600       -7.87430
