
  xtb     03032208013D
 energy: -456.281222077805 gnorm: 0.000262975054 xtb: 6.4.1 (unknown)
232258  0     0  0            999 V2000
    3.6590   -9.6442    4.2326 C   0  0  0  0  0  0  0  0  0  0  0  0
    4.3292   -8.7150    4.9443 C   0  0  0  0  0  0  0  0  0  0  0  0
    3.6036   -7.4964    5.0822 C   0  0  0  0  0  0  0  0  0  0  0  0
    4.0171   -6.3058    5.7002 C   0  0  0  0  0  0  0  0  0  0  0  0
    5.3639   -6.1549    6.2272 C   0  0  0  0  0  0  0  0  0  0  0  0
    5.6571   -5.6356    7.8581 S   0  0  0  0  0  0  0  0  0  0  0  0
    7.3745   -5.6921    7.6489 C   0  0  0  0  0  0  0  0  0  0  0  0
    8.2956   -5.2806    8.7435 C   0  0  0  0  0  0  0  0  0  0  0  0
    8.4258   -3.7565    8.7995 C   0  0  0  0  0  0  0  0  0  0  0  0
    7.6863   -6.0809    6.3801 C   0  0  0  0  0  0  0  0  0  0  0  0
    9.2917   -6.2443    5.7921 Cl  0  0  0  0  0  0  0  0  0  0  0  0
    6.5485   -6.3479    5.5733 C   0  0  0  0  0  0  0  0  0  0  0  0
    6.6709   -6.7889    3.9201 Cl  0  0  0  0  0  0  0  0  0  0  0  0
    3.1053   -5.2604    5.7327 C   0  0  0  0  0  0  0  0  0  0  0  0
    1.8223   -5.3496    5.1428 C   0  0  0  0  0  0  0  0  0  0  0  0
    1.4286   -6.5168    4.4674 C   0  0  0  0  0  0  0  0  0  0  0  0
    0.1699   -6.5626    3.7413 C   0  0  0  0  0  0  0  0  0  0  0  0
   -0.2074   -5.3311    2.5688 S   0  0  0  0  0  0  0  0  0  0  0  0
   -1.7186   -6.0660    2.1618 C   0  0  0  0  0  0  0  0  0  0  0  0
   -2.6087   -5.4792    1.1219 C   0  0  0  0  0  0  0  0  0  0  0  0
   -2.6768   -3.9575    1.2128 C   0  0  0  0  0  0  0  0  0  0  0  0
   -1.9074   -7.1942    2.9022 C   0  0  0  0  0  0  0  0  0  0  0  0
   -0.8395   -7.4816    3.7959 C   0  0  0  0  0  0  0  0  0  0  0  0
   -0.8822   -8.8077    4.8788 Cl  0  0  0  0  0  0  0  0  0  0  0  0
   -3.2913   -8.1997    2.7786 Cl  0  0  0  0  0  0  0  0  0  0  0  0
    2.3298   -7.5753    4.4671 C   0  0  0  0  0  0  0  0  0  0  0  0
    2.1049   -9.1175    3.6954 S   0  0  0  0  0  0  0  0  0  0  0  0
    1.1045   -4.1366    5.2647 C   0  0  0  0  0  0  0  0  0  0  0  0
    1.8192   -3.1314    5.8471 C   0  0  0  0  0  0  0  0  0  0  0  0
    3.4024   -3.6664    6.3740 S   0  0  0  0  0  0  0  0  0  0  0  0
    1.4736   -1.7479    5.8104 C   0  0  0  0  0  0  0  0  0  0  0  0
    2.2639   -0.6689    6.0761 C   0  0  0  0  0  0  0  0  0  0  0  0
    1.7370    0.5544    5.5857 C   0  0  0  0  0  0  0  0  0  0  0  0
    2.3753    1.8088    5.5197 C   0  0  0  0  0  0  0  0  0  0  0  0
    3.6437    2.0261    6.1890 C   0  0  0  0  0  0  0  0  0  0  0  0
    5.0096    2.7150    5.3629 S   0  0  0  0  0  0  0  0  0  0  0  0
    6.0124    2.6060    6.7677 C   0  0  0  0  0  0  0  0  0  0  0  0
    7.4446    3.0107    6.7296 C   0  0  0  0  0  0  0  0  0  0  0  0
    8.3327    1.8346    6.3154 C   0  0  0  0  0  0  0  0  0  0  0  0
    5.3175    2.0616    7.8069 C   0  0  0  0  0  0  0  0  0  0  0  0
    5.9818    1.8005    9.3676 Cl  0  0  0  0  0  0  0  0  0  0  0  0
    3.9746    1.7332    7.4846 C   0  0  0  0  0  0  0  0  0  0  0  0
    2.8732    1.1105    8.6447 Cl  0  0  0  0  0  0  0  0  0  0  0  0
    1.7731    2.7834    4.7288 C   0  0  0  0  0  0  0  0  0  0  0  0
    0.5344    2.5686    4.0836 C   0  0  0  0  0  0  0  0  0  0  0  0
   -0.1196    1.3307    4.1686 C   0  0  0  0  0  0  0  0  0  0  0  0
   -1.2810    1.0756    3.3251 C   0  0  0  0  0  0  0  0  0  0  0  0
   -1.1612   -0.0288    1.9822 S   0  0  0  0  0  0  0  0  0  0  0  0
   -2.7391    0.3867    1.4055 C   0  0  0  0  0  0  0  0  0  0  0  0
   -3.2699   -0.1454    0.1196 C   0  0  0  0  0  0  0  0  0  0  0  0
   -3.0656    0.8777   -1.0016 C   0  0  0  0  0  0  0  0  0  0  0  0
   -3.3160    1.3093    2.2261 C   0  0  0  0  0  0  0  0  0  0  0  0
   -2.4870    1.7135    3.3069 C   0  0  0  0  0  0  0  0  0  0  0  0
   -2.9663    2.8800    4.4689 Cl  0  0  0  0  0  0  0  0  0  0  0  0
   -4.8893    1.9344    1.9862 Cl  0  0  0  0  0  0  0  0  0  0  0  0
    0.5020    0.3507    4.9190 C   0  0  0  0  0  0  0  0  0  0  0  0
   -0.0313   -1.2969    5.0280 S   0  0  0  0  0  0  0  0  0  0  0  0
    0.1652    3.6588    3.2639 C   0  0  0  0  0  0  0  0  0  0  0  0
    1.0837    4.6622    3.2412 C   0  0  0  0  0  0  0  0  0  0  0  0
    2.4447    4.3372    4.2871 S   0  0  0  0  0  0  0  0  0  0  0  0
    0.9118    5.7389    2.2961 C   0  0  0  0  0  0  0  0  0  0  0  0
   -0.2719    6.3754    2.0996 C   0  0  0  0  0  0  0  0  0  0  0  0
   -0.4109    6.9212    0.7982 C   0  0  0  0  0  0  0  0  0  0  0  0
   -1.5986    7.3876    0.2207 C   0  0  0  0  0  0  0  0  0  0  0  0
   -2.8490    7.3955    0.9780 C   0  0  0  0  0  0  0  0  0  0  0  0
   -3.7390    8.8210    1.3918 S   0  0  0  0  0  0  0  0  0  0  0  0
   -5.0030    7.9007    2.1389 C   0  0  0  0  0  0  0  0  0  0  0  0
   -6.2074    8.5647    2.7090 C   0  0  0  0  0  0  0  0  0  0  0  0
   -7.2769    8.7689    1.6331 C   0  0  0  0  0  0  0  0  0  0  0  0
   -4.7405    6.5661    2.0488 C   0  0  0  0  0  0  0  0  0  0  0  0
   -5.7584    5.3378    2.6758 Cl  0  0  0  0  0  0  0  0  0  0  0  0
   -3.5169    6.2777    1.3896 C   0  0  0  0  0  0  0  0  0  0  0  0
   -2.9586    4.6836    1.0967 Cl  0  0  0  0  0  0  0  0  0  0  0  0
   -1.6186    7.5092   -1.1561 C   0  0  0  0  0  0  0  0  0  0  0  0
   -0.5078    7.2004   -1.9781 C   0  0  0  0  0  0  0  0  0  0  0  0
    0.7328    6.8849   -1.3831 C   0  0  0  0  0  0  0  0  0  0  0  0
    1.8909    6.6193   -2.2110 C   0  0  0  0  0  0  0  0  0  0  0  0
    2.9368    5.2571   -1.9368 S   0  0  0  0  0  0  0  0  0  0  0  0
    3.9462    5.6566   -3.2850 C   0  0  0  0  0  0  0  0  0  0  0  0
    5.1529    4.8448   -3.6023 C   0  0  0  0  0  0  0  0  0  0  0  0
    6.2947    5.1611   -2.6337 C   0  0  0  0  0  0  0  0  0  0  0  0
    3.4952    6.7894   -3.8946 C   0  0  0  0  0  0  0  0  0  0  0  0
    2.3261    7.3319   -3.2972 C   0  0  0  0  0  0  0  0  0  0  0  0
    1.5968    8.7808   -3.8556 Cl  0  0  0  0  0  0  0  0  0  0  0  0
    4.2468    7.5091   -5.2596 Cl  0  0  0  0  0  0  0  0  0  0  0  0
    0.7358    6.7034   -0.0017 C   0  0  0  0  0  0  0  0  0  0  0  0
    1.9996    5.9338    0.9285 S   0  0  0  0  0  0  0  0  0  0  0  0
   -0.9185    6.8995   -3.3059 C   0  0  0  0  0  0  0  0  0  0  0  0
   -2.2744    6.9446   -3.4778 C   0  0  0  0  0  0  0  0  0  0  0  0
   -3.0894    7.6289   -2.0789 S   0  0  0  0  0  0  0  0  0  0  0  0
   -3.0549    6.1091   -4.3419 C   0  0  0  0  0  0  0  0  0  0  0  0
   -2.6875    5.3702   -5.4298 C   0  0  0  0  0  0  0  0  0  0  0  0
   -3.4817    4.2058   -5.6115 C   0  0  0  0  0  0  0  0  0  0  0  0
   -3.2515    3.1329   -6.5019 C   0  0  0  0  0  0  0  0  0  0  0  0
   -2.4160    3.3168   -7.6680 C   0  0  0  0  0  0  0  0  0  0  0  0
   -1.2501    2.1344   -8.1881 S   0  0  0  0  0  0  0  0  0  0  0  0
   -0.7608    3.0945   -9.5417 C   0  0  0  0  0  0  0  0  0  0  0  0
    0.2559    2.5995  -10.5095 C   0  0  0  0  0  0  0  0  0  0  0  0
   -0.3900    1.6899  -11.5576 C   0  0  0  0  0  0  0  0  0  0  0  0
   -1.4783    4.2531   -9.5869 C   0  0  0  0  0  0  0  0  0  0  0  0
   -1.2859    5.4509  -10.8011 Cl  0  0  0  0  0  0  0  0  0  0  0  0
   -2.4109    4.3877   -8.5257 C   0  0  0  0  0  0  0  0  0  0  0  0
   -3.4756    5.7286   -8.4138 Cl  0  0  0  0  0  0  0  0  0  0  0  0
   -3.8024    1.9074   -6.1392 C   0  0  0  0  0  0  0  0  0  0  0  0
   -4.6692    1.7567   -5.0297 C   0  0  0  0  0  0  0  0  0  0  0  0
   -5.1134    2.8834   -4.3149 C   0  0  0  0  0  0  0  0  0  0  0  0
   -6.0945    2.7601   -3.2560 C   0  0  0  0  0  0  0  0  0  0  0  0
   -5.8847    3.5093   -1.6986 S   0  0  0  0  0  0  0  0  0  0  0  0
   -7.4003    2.9116   -1.1176 C   0  0  0  0  0  0  0  0  0  0  0  0
   -7.8962    3.2861    0.2340 C   0  0  0  0  0  0  0  0  0  0  0  0
   -8.3617    4.7437    0.2560 C   0  0  0  0  0  0  0  0  0  0  0  0
   -8.0212    2.1746   -2.0819 C   0  0  0  0  0  0  0  0  0  0  0  0
   -7.2808    2.0767   -3.2895 C   0  0  0  0  0  0  0  0  0  0  0  0
   -7.8777    1.2522   -4.6707 Cl  0  0  0  0  0  0  0  0  0  0  0  0
   -9.5556    1.4298   -1.8838 Cl  0  0  0  0  0  0  0  0  0  0  0  0
   -4.4601    4.0749   -4.5973 C   0  0  0  0  0  0  0  0  0  0  0  0
   -4.5319    5.4960   -3.6055 S   0  0  0  0  0  0  0  0  0  0  0  0
   -4.8169    0.4029   -4.6481 C   0  0  0  0  0  0  0  0  0  0  0  0
   -4.1203   -0.4674   -5.4326 C   0  0  0  0  0  0  0  0  0  0  0  0
   -3.3706    0.3491   -6.8032 S   0  0  0  0  0  0  0  0  0  0  0  0
   -3.6954   -1.7746   -5.0480 C   0  0  0  0  0  0  0  0  0  0  0  0
   -3.2824   -1.9660   -3.3747 S   0  0  0  0  0  0  0  0  0  0  0  0
   -2.4940   -3.4801   -3.6509 C   0  0  0  0  0  0  0  0  0  0  0  0
   -2.6236   -3.8688   -4.9853 C   0  0  0  0  0  0  0  0  0  0  0  0
   -3.2890   -2.8826   -5.7827 C   0  0  0  0  0  0  0  0  0  0  0  0
   -3.4446   -3.1029   -7.1688 C   0  0  0  0  0  0  0  0  0  0  0  0
   -2.9640   -4.2387   -7.7471 C   0  0  0  0  0  0  0  0  0  0  0  0
   -3.1113   -4.5092   -9.2090 C   0  0  0  0  0  0  0  0  0  0  0  0
   -2.2835   -5.2144   -6.9447 C   0  0  0  0  0  0  0  0  0  0  0  0
   -1.8430   -6.2988   -7.6342 O   0  0  0  0  0  0  0  0  0  0  0  0
   -1.1774   -7.3192   -6.9307 C   0  0  0  0  0  0  0  0  0  0  0  0
   -2.1135   -5.0314   -5.5984 C   0  0  0  0  0  0  0  0  0  0  0  0
   -1.5994   -3.9688   -2.6525 C   0  0  0  0  0  0  0  0  0  0  0  0
   -1.1584   -5.2268   -2.3749 C   0  0  0  0  0  0  0  0  0  0  0  0
   -0.0731   -5.2589   -1.4581 C   0  0  0  0  0  0  0  0  0  0  0  0
    0.6152   -6.3819   -0.9691 C   0  0  0  0  0  0  0  0  0  0  0  0
    0.2838   -7.7205   -1.4264 C   0  0  0  0  0  0  0  0  0  0  0  0
    0.1913   -8.0662   -3.1335 S   0  0  0  0  0  0  0  0  0  0  0  0
   -0.1378   -9.7430   -2.8640 C   0  0  0  0  0  0  0  0  0  0  0  0
   -0.3904  -10.6763   -3.9965 C   0  0  0  0  0  0  0  0  0  0  0  0
   -1.8866  -10.7716   -4.3048 C   0  0  0  0  0  0  0  0  0  0  0  0
   -0.1841  -10.0019   -1.5276 C   0  0  0  0  0  0  0  0  0  0  0  0
   -0.4982  -11.5532   -0.8683 Cl  0  0  0  0  0  0  0  0  0  0  0  0
    0.0599   -8.8633   -0.7106 C   0  0  0  0  0  0  0  0  0  0  0  0
   -0.0150   -8.9410    0.9997 Cl  0  0  0  0  0  0  0  0  0  0  0  0
    1.6743   -6.1392   -0.0990 C   0  0  0  0  0  0  0  0  0  0  0  0
    2.1040   -4.8359    0.2580 C   0  0  0  0  0  0  0  0  0  0  0  0
    1.3877   -3.7130   -0.1953 C   0  0  0  0  0  0  0  0  0  0  0  0
    1.7600   -2.3487    0.1391 C   0  0  0  0  0  0  0  0  0  0  0  0
    1.7738   -1.0992   -1.0781 S   0  0  0  0  0  0  0  0  0  0  0  0
    2.2598    0.1189    0.0463 C   0  0  0  0  0  0  0  0  0  0  0  0
    2.4919    1.5306   -0.3677 C   0  0  0  0  0  0  0  0  0  0  0  0
    3.9772    1.8051   -0.6121 C   0  0  0  0  0  0  0  0  0  0  0  0
    2.4137   -0.4250    1.2856 C   0  0  0  0  0  0  0  0  0  0  0  0
    2.1222   -1.8129    1.3450 C   0  0  0  0  0  0  0  0  0  0  0  0
    2.1306   -2.6733    2.8233 Cl  0  0  0  0  0  0  0  0  0  0  0  0
    2.9109    0.4780    2.6579 Cl  0  0  0  0  0  0  0  0  0  0  0  0
    0.3064   -3.9643   -1.0332 C   0  0  0  0  0  0  0  0  0  0  0  0
   -0.7288   -2.7519   -1.7229 S   0  0  0  0  0  0  0  0  0  0  0  0
    3.3020   -4.8809    1.0297 C   0  0  0  0  0  0  0  0  0  0  0  0
    3.7196   -6.1370    1.2856 C   0  0  0  0  0  0  0  0  0  0  0  0
    2.7141   -7.3536    0.5863 S   0  0  0  0  0  0  0  0  0  0  0  0
    3.9765  -10.6380    3.9840 H   0  0  0  0  0  0  0  0  0  0  0  0
    5.3005   -8.8780    5.3739 H   0  0  0  0  0  0  0  0  0  0  0  0
    7.9127   -5.6465    9.6978 H   0  0  0  0  0  0  0  0  0  0  0  0
    9.2752   -5.7272    8.5645 H   0  0  0  0  0  0  0  0  0  0  0  0
    8.8170   -3.3768    7.8587 H   0  0  0  0  0  0  0  0  0  0  0  0
    7.4547   -3.3020    8.9806 H   0  0  0  0  0  0  0  0  0  0  0  0
    9.1020   -3.4689    9.5999 H   0  0  0  0  0  0  0  0  0  0  0  0
   -2.2373   -5.7645    0.1323 H   0  0  0  0  0  0  0  0  0  0  0  0
   -3.6045   -5.9112    1.2404 H   0  0  0  0  0  0  0  0  0  0  0  0
   -1.6839   -3.5253    1.1055 H   0  0  0  0  0  0  0  0  0  0  0  0
   -3.3156   -3.5660    0.4253 H   0  0  0  0  0  0  0  0  0  0  0  0
   -3.0805   -3.6499    2.1742 H   0  0  0  0  0  0  0  0  0  0  0  0
    0.1077   -3.9905    4.8896 H   0  0  0  0  0  0  0  0  0  0  0  0
    3.2343   -0.7648    6.5290 H   0  0  0  0  0  0  0  0  0  0  0  0
    7.7389    3.3571    7.7221 H   0  0  0  0  0  0  0  0  0  0  0  0
    7.5695    3.8298    6.0199 H   0  0  0  0  0  0  0  0  0  0  0  0
    8.0498    1.4783    5.3278 H   0  0  0  0  0  0  0  0  0  0  0  0
    9.3741    2.1437    6.2910 H   0  0  0  0  0  0  0  0  0  0  0  0
    8.2282    1.0165    7.0236 H   0  0  0  0  0  0  0  0  0  0  0  0
   -4.3363   -0.3534    0.2303 H   0  0  0  0  0  0  0  0  0  0  0  0
   -2.7528   -1.0708   -0.1348 H   0  0  0  0  0  0  0  0  0  0  0  0
   -3.5670    1.8120   -0.7613 H   0  0  0  0  0  0  0  0  0  0  0  0
   -3.4700    0.4958   -1.9347 H   0  0  0  0  0  0  0  0  0  0  0  0
   -2.0055    1.0752   -1.1403 H   0  0  0  0  0  0  0  0  0  0  0  0
   -0.7233    3.6732    2.6603 H   0  0  0  0  0  0  0  0  0  0  0  0
   -1.0588    6.3871    2.8314 H   0  0  0  0  0  0  0  0  0  0  0  0
   -5.9245    9.5312    3.1291 H   0  0  0  0  0  0  0  0  0  0  0  0
   -6.6086    7.9388    3.5085 H   0  0  0  0  0  0  0  0  0  0  0  0
   -8.1481    9.2572    2.0612 H   0  0  0  0  0  0  0  0  0  0  0  0
   -6.8887    9.3885    0.8283 H   0  0  0  0  0  0  0  0  0  0  0  0
   -7.5821    7.8118    1.2181 H   0  0  0  0  0  0  0  0  0  0  0  0
    4.9048    3.7837   -3.5340 H   0  0  0  0  0  0  0  0  0  0  0  0
    5.4642    5.0666   -4.6242 H   0  0  0  0  0  0  0  0  0  0  0  0
    7.1649    4.5559   -2.8724 H   0  0  0  0  0  0  0  0  0  0  0  0
    5.9916    4.9501   -1.6108 H   0  0  0  0  0  0  0  0  0  0  0  0
    6.5698    6.2103   -2.7048 H   0  0  0  0  0  0  0  0  0  0  0  0
   -0.2522    6.4981   -4.0479 H   0  0  0  0  0  0  0  0  0  0  0  0
   -1.8161    5.5853   -6.0213 H   0  0  0  0  0  0  0  0  0  0  0  0
    1.0271    2.0440   -9.9731 H   0  0  0  0  0  0  0  0  0  0  0  0
    0.7180    3.4564  -11.0028 H   0  0  0  0  0  0  0  0  0  0  0  0
    0.3609    1.3363  -12.2589 H   0  0  0  0  0  0  0  0  0  0  0  0
   -1.1531    2.2335  -12.1089 H   0  0  0  0  0  0  0  0  0  0  0  0
   -0.8528    0.8315  -11.0765 H   0  0  0  0  0  0  0  0  0  0  0  0
   -8.7227    2.6263    0.5023 H   0  0  0  0  0  0  0  0  0  0  0  0
   -7.0956    3.1570    0.9638 H   0  0  0  0  0  0  0  0  0  0  0  0
   -9.1794    4.8924   -0.4451 H   0  0  0  0  0  0  0  0  0  0  0  0
   -8.7025    5.0096    1.2531 H   0  0  0  0  0  0  0  0  0  0  0  0
   -7.5402    5.4007   -0.0217 H   0  0  0  0  0  0  0  0  0  0  0  0
   -5.3496    0.0914   -3.7675 H   0  0  0  0  0  0  0  0  0  0  0  0
   -3.9508   -2.3571   -7.7628 H   0  0  0  0  0  0  0  0  0  0  0  0
   -2.1307   -4.6373   -9.6644 H   0  0  0  0  0  0  0  0  0  0  0  0
   -3.6622   -5.4355   -9.3638 H   0  0  0  0  0  0  0  0  0  0  0  0
   -3.6328   -3.6940   -9.7022 H   0  0  0  0  0  0  0  0  0  0  0  0
   -0.9318   -8.0764   -7.6734 H   0  0  0  0  0  0  0  0  0  0  0  0
   -1.8201   -7.7598   -6.1619 H   0  0  0  0  0  0  0  0  0  0  0  0
   -0.2576   -6.9554   -6.4621 H   0  0  0  0  0  0  0  0  0  0  0  0
   -1.5866   -5.7479   -4.9923 H   0  0  0  0  0  0  0  0  0  0  0  0
   -1.6045   -6.1105   -2.7905 H   0  0  0  0  0  0  0  0  0  0  0  0
   -0.0140  -11.6647   -3.7261 H   0  0  0  0  0  0  0  0  0  0  0  0
    0.1447  -10.3257   -4.8806 H   0  0  0  0  0  0  0  0  0  0  0  0
   -2.0545  -11.4507   -5.1361 H   0  0  0  0  0  0  0  0  0  0  0  0
   -2.2834   -9.7937   -4.5672 H   0  0  0  0  0  0  0  0  0  0  0  0
   -2.4256  -11.1424   -3.4371 H   0  0  0  0  0  0  0  0  0  0  0  0
    1.9273    1.7385   -1.2772 H   0  0  0  0  0  0  0  0  0  0  0  0
    2.1324    2.1920    0.4239 H   0  0  0  0  0  0  0  0  0  0  0  0
    4.5490    1.6098    0.2909 H   0  0  0  0  0  0  0  0  0  0  0  0
    4.3537    1.1680   -1.4087 H   0  0  0  0  0  0  0  0  0  0  0  0
    4.1136    2.8454   -0.8947 H   0  0  0  0  0  0  0  0  0  0  0  0
    3.8357   -4.0089    1.3559 H   0  0  0  0  0  0  0  0  0  0  0  0
    4.5775   -6.4434    1.8516 H   0  0  0  0  0  0  0  0  0  0  0  0
  1  2  2  0  0  0  0
  2  3  1  0  0  0  0
  3  4  2  0  0  0  0
  4  5  1  0  0  0  0
  5  6  1  0  0  0  0
  6  7  1  0  0  0  0
  7  8  1  0  0  0  0
  8  9  1  0  0  0  0
  7 10  2  0  0  0  0
 10 11  1  0  0  0  0
 10 12  1  0  0  0  0
 12 13  1  0  0  0  0
  4 14  1  0  0  0  0
 14 15  2  0  0  0  0
 15 16  1  0  0  0  0
 16 17  1  0  0  0  0
 17 18  1  0  0  0  0
 18 19  1  0  0  0  0
 19 20  1  0  0  0  0
 20 21  1  0  0  0  0
 19 22  2  0  0  0  0
 22 23  1  0  0  0  0
 23 24  1  0  0  0  0
 22 25  1  0  0  0  0
 16 26  2  0  0  0  0
 26 27  1  0  0  0  0
 15 28  1  0  0  0  0
 28 29  2  0  0  0  0
 29 30  1  0  0  0  0
 29 31  1  0  0  0  0
 31 32  2  0  0  0  0
 32 33  1  0  0  0  0
 33 34  2  0  0  0  0
 34 35  1  0  0  0  0
 35 36  1  0  0  0  0
 36 37  1  0  0  0  0
 37 38  1  0  0  0  0
 38 39  1  0  0  0  0
 37 40  2  0  0  0  0
 40 41  1  0  0  0  0
 40 42  1  0  0  0  0
 42 43  1  0  0  0  0
 34 44  1  0  0  0  0
 44 45  2  0  0  0  0
 45 46  1  0  0  0  0
 46 47  1  0  0  0  0
 47 48  1  0  0  0  0
 48 49  1  0  0  0  0
 49 50  1  0  0  0  0
 50 51  1  0  0  0  0
 49 52  2  0  0  0  0
 52 53  1  0  0  0  0
 53 54  1  0  0  0  0
 52 55  1  0  0  0  0
 46 56  2  0  0  0  0
 56 57  1  0  0  0  0
 45 58  1  0  0  0  0
 58 59  2  0  0  0  0
 59 60  1  0  0  0  0
 59 61  1  0  0  0  0
 61 62  2  0  0  0  0
 62 63  1  0  0  0  0
 63 64  2  0  0  0  0
 64 65  1  0  0  0  0
 65 66  1  0  0  0  0
 66 67  1  0  0  0  0
 67 68  1  0  0  0  0
 68 69  1  0  0  0  0
 67 70  2  0  0  0  0
 70 71  1  0  0  0  0
 70 72  1  0  0  0  0
 72 73  1  0  0  0  0
 64 74  1  0  0  0  0
 74 75  2  0  0  0  0
 75 76  1  0  0  0  0
 76 77  1  0  0  0  0
 77 78  1  0  0  0  0
 78 79  1  0  0  0  0
 79 80  1  0  0  0  0
 80 81  1  0  0  0  0
 79 82  2  0  0  0  0
 82 83  1  0  0  0  0
 83 84  1  0  0  0  0
 82 85  1  0  0  0  0
 76 86  2  0  0  0  0
 86 87  1  0  0  0  0
 75 88  1  0  0  0  0
 88 89  2  0  0  0  0
 89 90  1  0  0  0  0
 89 91  1  0  0  0  0
 91 92  2  0  0  0  0
 92 93  1  0  0  0  0
 93 94  2  0  0  0  0
 94 95  1  0  0  0  0
 95 96  1  0  0  0  0
 96 97  1  0  0  0  0
 97 98  1  0  0  0  0
 98 99  1  0  0  0  0
 97100  2  0  0  0  0
100101  1  0  0  0  0
100102  1  0  0  0  0
102103  1  0  0  0  0
 94104  1  0  0  0  0
104105  2  0  0  0  0
105106  1  0  0  0  0
106107  1  0  0  0  0
107108  1  0  0  0  0
108109  1  0  0  0  0
109110  1  0  0  0  0
110111  1  0  0  0  0
109112  2  0  0  0  0
112113  1  0  0  0  0
113114  1  0  0  0  0
112115  1  0  0  0  0
106116  2  0  0  0  0
116117  1  0  0  0  0
105118  1  0  0  0  0
118119  2  0  0  0  0
119120  1  0  0  0  0
119121  1  0  0  0  0
121122  1  0  0  0  0
122123  1  0  0  0  0
123124  2  0  0  0  0
124125  1  0  0  0  0
125126  1  0  0  0  0
126127  2  0  0  0  0
127128  1  0  0  0  0
127129  1  0  0  0  0
129130  1  0  0  0  0
130131  1  0  0  0  0
129132  2  0  0  0  0
123133  1  0  0  0  0
133134  2  0  0  0  0
134135  1  0  0  0  0
135136  2  0  0  0  0
136137  1  0  0  0  0
137138  1  0  0  0  0
138139  1  0  0  0  0
139140  1  0  0  0  0
140141  1  0  0  0  0
139142  2  0  0  0  0
142143  1  0  0  0  0
142144  1  0  0  0  0
144145  1  0  0  0  0
136146  1  0  0  0  0
146147  2  0  0  0  0
147148  1  0  0  0  0
148149  1  0  0  0  0
149150  1  0  0  0  0
150151  1  0  0  0  0
151152  1  0  0  0  0
152153  1  0  0  0  0
151154  2  0  0  0  0
154155  1  0  0  0  0
155156  1  0  0  0  0
154157  1  0  0  0  0
148158  2  0  0  0  0
158159  1  0  0  0  0
147160  1  0  0  0  0
160161  2  0  0  0  0
161162  1  0  0  0  0
 27  1  1  0  0  0  0
 57 31  1  0  0  0  0
 87 61  1  0  0  0  0
117 91  1  0  0  0  0
125121  2  0  0  0  0
159133  1  0  0  0  0
 26  3  1  0  0  0  0
 56 33  1  0  0  0  0
 86 63  1  0  0  0  0
116 93  1  0  0  0  0
132124  1  0  0  0  0
158135  1  0  0  0  0
 12  5  2  0  0  0  0
 30 14  1  0  0  0  0
 42 35  2  0  0  0  0
 60 44  1  0  0  0  0
 72 65  2  0  0  0  0
 90 74  1  0  0  0  0
102 95  2  0  0  0  0
120104  1  0  0  0  0
144137  2  0  0  0  0
162146  1  0  0  0  0
 23 17  2  0  0  0  0
 53 47  2  0  0  0  0
 83 77  2  0  0  0  0
113107  2  0  0  0  0
155149  2  0  0  0  0
  1163  1  0  0  0  0
  2164  1  0  0  0  0
  8165  1  0  0  0  0
  8166  1  0  0  0  0
  9167  1  0  0  0  0
  9168  1  0  0  0  0
  9169  1  0  0  0  0
 20170  1  0  0  0  0
 20171  1  0  0  0  0
 21172  1  0  0  0  0
 21173  1  0  0  0  0
 21174  1  0  0  0  0
 28175  1  0  0  0  0
 32176  1  0  0  0  0
 38177  1  0  0  0  0
 38178  1  0  0  0  0
 39179  1  0  0  0  0
 39180  1  0  0  0  0
 39181  1  0  0  0  0
 50182  1  0  0  0  0
 50183  1  0  0  0  0
 51184  1  0  0  0  0
 51185  1  0  0  0  0
 51186  1  0  0  0  0
 58187  1  0  0  0  0
 62188  1  0  0  0  0
 68189  1  0  0  0  0
 68190  1  0  0  0  0
 69191  1  0  0  0  0
 69192  1  0  0  0  0
 69193  1  0  0  0  0
 80194  1  0  0  0  0
 80195  1  0  0  0  0
 81196  1  0  0  0  0
 81197  1  0  0  0  0
 81198  1  0  0  0  0
 88199  1  0  0  0  0
 92200  1  0  0  0  0
 98201  1  0  0  0  0
 98202  1  0  0  0  0
 99203  1  0  0  0  0
 99204  1  0  0  0  0
 99205  1  0  0  0  0
110206  1  0  0  0  0
110207  1  0  0  0  0
111208  1  0  0  0  0
111209  1  0  0  0  0
111210  1  0  0  0  0
118211  1  0  0  0  0
126212  1  0  0  0  0
128213  1  0  0  0  0
128214  1  0  0  0  0
128215  1  0  0  0  0
131216  1  0  0  0  0
131217  1  0  0  0  0
131218  1  0  0  0  0
132219  1  0  0  0  0
134220  1  0  0  0  0
140221  1  0  0  0  0
140222  1  0  0  0  0
141223  1  0  0  0  0
141224  1  0  0  0  0
141225  1  0  0  0  0
152226  1  0  0  0  0
152227  1  0  0  0  0
153228  1  0  0  0  0
153229  1  0  0  0  0
153230  1  0  0  0  0
160231  1  0  0  0  0
161232  1  0  0  0  0
M  END
