212

C         11.99240        1.86660       11.62470
S         10.67110        2.55740       10.79930
C         10.63090        1.27330        9.62290
C         11.63520        0.34160        9.88980
C         12.41160        0.69240       11.04380
C         13.47380       -0.14950       11.45590
C         13.76210       -1.28590       10.76800
C         14.87300       -2.20280       11.16700
C         12.97970       -1.63370        9.61550
O         13.35910       -2.79140        9.01170
C         12.65030       -3.22100        7.87560
C         11.94740       -0.84250        9.18980
C          9.64340        1.32220        8.60220
C          8.66030        2.26520        8.47280
C          7.81140        2.07540        7.35670
C          6.69280        2.83690        6.97570
C          6.31250        4.05400        7.70150
C          7.25020        5.04520        7.97690
C          6.89890        6.19680        8.65470
C          5.59120        6.40090        9.07940
S          5.00470        7.79990        9.97590
C          6.36030        9.01690        9.85390
C          6.48160        9.60710        8.46160
C          4.66140        5.39810        8.79720
F          3.38660        5.55870        9.20500
C          4.99820        4.24700        8.12310
C          5.97360        2.38070        5.88080
C          6.32550        1.21960        5.14860
C          7.44780        0.46110        5.52570
C          7.81740       -0.76710        4.81260
C          9.11870       -0.97910        4.36830
C          9.46630       -2.13520        3.69610
C          8.52190       -3.12260        3.44070
S          8.83160       -4.64800        2.61410
C         10.40920       -4.36660        1.73810
C         10.26600       -3.37280        0.60120
C          7.22450       -2.90510        3.90870
C          6.86530       -1.75840        4.57960
F          6.28510       -3.84880        3.69840
C          8.16590        0.92100        6.61580
S          9.55700        0.13250        7.31200
C          5.45750        1.00060        4.05170
C          4.46690        1.93330        3.94260
S          4.57080        3.15600        5.19220
C          3.41430        1.96360        2.97920
C          3.11710        1.00650        2.05230
C          1.98690        1.31770        1.25800
C          1.38570        0.52280        0.26730
C          1.96910       -0.76150       -0.13720
C          3.30890       -0.85470       -0.51300
C          3.84250       -2.05840       -0.91780
C          3.07550       -3.22350       -0.94530
S          3.90170       -4.70280       -1.44390
C          2.62210       -5.71610       -2.27310
C          1.98570       -4.99580       -3.44470
C          1.75150       -3.11890       -0.53300
F          0.95090       -4.20910       -0.47940
C          1.19310       -1.91420       -0.15780
C          0.22470        1.01450       -0.30490
C         -0.34640        2.26450        0.04430
C          0.25240        3.05770        1.03860
C         -0.33020        4.33350        1.46880
C          0.45240        5.48070        1.56520
C         -0.08300        6.67680        2.00010
C         -1.42050        6.76690        2.36840
S         -2.21350        8.23410        2.93870
C         -0.83530        9.24100        3.58990
C         -0.16930        8.59740        4.79050
C         -2.19780        5.61350        2.25250
C         -1.67790        4.41600        1.81530
F         -3.50250        5.66360        2.58780
C          1.41210        2.56190        1.61580
S          2.30490        3.31730        2.91010
C         -1.49380        2.55930       -0.73210
C         -1.81710        1.58640       -1.63590
S         -0.69580        0.23290       -1.56200
C         -2.91230        1.52480       -2.54110
S         -3.47720       -0.02190       -3.07420
C         -4.77500        0.66480       -4.00050
C         -4.74890        2.06140       -3.91500
C         -3.68540        2.54970       -3.09240
C         -3.50260        3.94440       -2.96980
C         -4.35250        4.82000       -3.57700
C         -4.18250        6.29990       -3.46170
C         -5.44560        4.32220       -4.35510
O         -6.23750        5.28250       -4.89780
C         -7.33600        4.88430       -5.68200
C         -5.62820        2.97600       -4.52810
C         -5.65280       -0.21910       -4.67950
C         -5.62510       -1.58700       -4.60430
C         -6.60830       -2.23550       -5.38510
C         -6.83830       -3.61720       -5.52310
C         -5.95800       -4.60470       -4.89030
C         -4.57320       -4.50080       -5.00850
C         -3.73580       -5.42820       -4.42280
C         -4.25060       -6.49330       -3.69170
S         -3.26090       -7.73150       -2.91670
C         -1.74930       -6.81010       -2.45800
C         -2.04350       -5.68110       -1.49130
C         -5.63760       -6.59950       -3.60050
F         -6.17770       -7.62570       -2.91400
C         -6.48480       -5.68000       -4.17870
C         -7.92170       -3.98890       -6.30330
C         -8.74540       -3.06210       -6.98920
C         -8.49080       -1.68300       -6.88170
C         -9.28850       -0.69590       -7.61850
C         -9.84700        0.40750       -6.97630
C        -10.59730        1.32460       -7.68050
C        -10.80720        1.19050       -9.05120
S        -11.74980        2.45250       -9.85840
C        -12.79350        1.52970      -11.04710
C        -13.64820        0.48310      -10.36120
C        -10.21460        0.10330       -9.68580
C         -9.48350       -0.83670       -8.98910
F        -10.33150       -0.06740      -11.02200
C         -7.44140       -1.30940       -6.05980
S         -6.93690        0.33100       -5.74560
C         -9.78410       -3.70440       -7.70140
C         -9.77220       -5.06970       -7.60420
S         -8.43740       -5.62680       -6.61110
C        -10.70280       -5.96120       -8.20390
S        -11.90470       -5.30350       -9.27650
C        -12.60310       -6.83370       -9.55930
C        -11.95990       -7.83380       -8.86700
C        -10.86240       -7.34230       -8.08510
C        -10.12030       -8.26590       -7.31610
C        -10.43580       -9.59120       -7.31730
C         -9.66650      -10.58320       -6.50730
C        -11.53350      -10.07150       -8.10790
O        -11.73930      -11.41430       -8.01970
C        -12.79440      -11.97870       -8.75580
C        -12.27820       -9.21340       -8.86480
H         12.39220        2.35370       12.49150
H         14.04890        0.12790       12.32660
H         15.38090       -1.83260       12.05320
H         14.48070       -3.19860       11.36680
H         15.59060       -2.29540       10.35340
H         11.59520       -3.40220        8.10330
H         12.72170       -2.49460        7.05970
H         13.12000       -4.15520        7.57160
H         11.36260       -1.11020        8.32750
H          8.53290        3.06230        9.18330
H          8.26820        4.92370        7.63830
H          7.66020        6.93360        8.85290
H          6.07840        9.78360       10.57560
H          7.28330        8.54750       10.19170
H          6.70230        8.83560        7.72700
H          7.27960       10.34700        8.44070
H          5.55000       10.09150        8.17880
H          4.23880        3.50160        7.94880
H          9.86920       -0.22170        4.53540
H         10.48730       -2.26170        3.37410
H         10.66600       -5.35540        1.35810
H         11.16590       -4.06730        2.46220
H         11.21460       -3.26920        0.07780
H          9.51430       -3.71810       -0.10460
H          9.96480       -2.39530        0.97230
H          5.85250       -1.65270        4.93600
H          5.57800        0.18900        3.35840
H          3.66440        0.08680        1.95790
H          3.92350        0.03280       -0.51770
H          4.87500       -2.12280       -1.22480
H          3.18380       -6.58810       -2.60910
H          1.88620       -6.03340       -1.53750
H          2.74840       -4.64970       -4.13920
H          1.40820       -4.13640       -3.11020
H          1.31810       -5.67540       -3.97080
H          0.15900       -1.89640        0.14920
H          1.49180        5.44360        1.27710
H          0.55230        7.54650        2.04480
H         -1.31910       10.17740        3.86800
H         -0.13270        9.44160        2.78170
H          0.27670        7.64080        4.52570
H         -0.89840        8.42880        5.57940
H          0.61280        9.25000        5.17350
H         -2.31690        3.54760        1.78130
H         -2.07380        3.45200       -0.59670
H         -2.66370        4.32250       -2.40830
H         -5.06340        6.73920       -2.99620
H         -4.08560        6.74300       -4.45140
H         -3.30550        6.54530       -2.86920
H         -7.01830        4.31790       -6.56300
H         -8.04410        4.28240       -5.10390
H         -7.82010        5.80600       -6.00030
H         -6.43450        2.59960       -5.13220
H         -4.92580       -2.11050       -3.97710
H         -4.14670       -3.69860       -5.59140
H         -2.66950       -5.32430       -4.54670
H         -1.12200       -7.57020       -1.99300
H         -1.25750       -6.46040       -3.36500
H         -2.55510       -6.06480       -0.61180
H         -2.67430       -4.92540       -1.95570
H         -1.11510       -5.21340       -1.17600
H         -7.54860       -5.79600       -4.04550
H         -9.71690        0.52940       -5.91220
H        -11.04220        2.16880       -7.17700
H        -12.15720        1.09680      -11.81590
H        -13.40970        2.30990      -11.49410
H        -14.31250        0.01970      -11.08780
H        -13.02930       -0.29490       -9.91790
H        -14.24950        0.93580       -9.57540
H         -9.03900       -1.65630       -9.53240
H        -10.54050       -3.17410       -8.25230
H        -13.44650       -6.91930      -10.21480
H         -9.29370       -7.92130       -6.71600
H         -9.23900      -11.34480       -7.15770
H        -10.33110      -11.09130       -5.81030
H         -8.86960      -10.09590       -5.95280
H        -12.77170      -13.04490       -8.53600
H        -12.65930      -11.82760       -9.83190
H        -13.76210      -11.56650       -8.45150
H        -13.10980       -9.54390       -9.46610
