82

C          5.29250       -0.97090        9.40770
C          6.16880        0.02550        9.14970
C          5.89910        0.71560        7.93600
C          6.68020        1.89310        7.55400
O          6.43340        2.67340        6.66630
O          7.75330        2.06450        8.35130
C          4.79310        0.20000        7.27120
S          4.10530       -1.11820        8.17210
C          4.19220        0.53260        6.02040
C          4.69990        1.18090        4.92460
C          3.79430        1.28900        3.85540
C          4.17910        2.06420        2.66610
O          5.29410        2.11840        2.21520
O          3.16320        2.77590        2.14140
C          2.55920        0.69280        4.10580
S          2.55100        0.01380        5.70920
C          1.47280        0.47690        3.22350
S          1.74200        0.42000        1.51500
C          0.09190        0.01360        1.15200
C         -0.65620       -0.04640        2.34650
C          0.12760        0.20300        3.51150
C         -0.49600        0.19650        4.77490
C         -1.83040       -0.06130        4.89960
C         -2.51310       -0.07990        6.22810
C         -2.61120       -0.30240        3.72970
O         -3.93030       -0.52920        3.96320
C         -4.77510       -0.78250        2.86720
C         -2.03580       -0.28200        2.48400
C         -0.31020       -0.25670       -0.17290
S         -1.76680       -1.15190       -0.49760
C         -1.51620       -1.15680       -2.21650
C         -0.34000       -0.46710       -2.53470
C          0.34150        0.03860       -1.38620
C          1.52390        0.78010       -1.57980
C          2.03410        0.99090       -2.82830
C          3.28910        1.77110       -3.04780
C          1.35710        0.45940       -3.96820
O          1.95100        0.72450       -5.15820
C          1.34640        0.24500       -6.33590
C          0.19130       -0.24630       -3.81950
C         -2.47020       -1.81250       -3.03050
C         -3.59860       -2.46880       -2.59940
C         -4.37440       -3.03840       -3.62920
C         -5.59900       -3.77250       -3.34060
O         -6.32090       -4.30880       -4.15290
O         -5.88660       -3.81450       -2.02900
C         -3.84320       -2.82370       -4.89840
S         -2.36860       -1.90430       -4.77280
C         -4.26500       -3.19270       -6.20670
C         -3.59340       -2.85950       -7.36120
C         -4.21520       -3.33840       -8.53040
C         -3.67510       -3.09490       -9.87130
O         -2.66620       -2.47740      -10.10880
O         -4.42740       -3.63810      -10.84450
C         -5.36300       -4.03890       -8.24820
S         -5.69740       -4.12200       -6.57980
H          5.26440       -1.63510       10.24800
H          6.98710        0.29140        9.79270
H          8.22980        2.86230        8.07460
H          5.68730        1.59870        4.88000
H          3.48760        3.29970        1.39220
H          0.08700        0.41010        5.65630
H         -3.30560        0.66640        6.25140
H         -2.97900       -1.05010        6.39230
H         -1.80670        0.11950        7.02870
H         -5.76200       -0.95990        3.29160
H         -4.45410       -1.66770        2.30920
H         -4.82160        0.07540        2.18880
H         -2.63500       -0.42410        1.60280
H          2.03560        1.20210       -0.73100
H          4.00390        1.17290       -3.60990
H          3.07800        2.66080       -3.63930
H          3.73410        2.06500       -2.10150
H          1.27620       -0.84690       -6.33560
H          0.34830        0.67130       -6.47660
H          1.99380        0.56530       -7.15030
H         -0.33370       -0.63540       -4.67380
H         -3.86970       -2.54590       -1.56240
H         -6.70540       -4.31780       -1.89860
H         -2.68250       -2.28840       -7.38300
H         -4.02800       -3.44800      -11.70760
H         -6.01840       -4.50410       -8.95740
