
  xtb     03042213523D
 energy: -186.370342169394 gnorm: 0.000381460672 xtb: 6.4.1 (unknown)
106121  0     0  0            999 V2000
    5.6640    3.5376    0.8827 C   0  0  0  0  0  0  0  0  0  0  0  0
    4.3410    3.6561    1.1215 C   0  0  0  0  0  0  0  0  0  0  0  0
    3.7561    4.7950    1.7147 C   0  0  0  0  0  0  0  0  0  0  0  0
    4.5868    5.9497    2.0881 C   0  0  0  0  0  0  0  0  0  0  0  0
    5.9277    6.0108    1.9336 C   0  0  0  0  0  0  0  0  0  0  0  0
    6.8620    4.7351    1.2651 S   0  0  0  0  0  0  0  0  0  0  0  0
    3.6786    6.9069    2.6160 C   0  0  0  0  0  0  0  0  0  0  0  0
    2.3796    6.4027    2.5671 C   0  0  0  0  0  0  0  0  0  0  0  0
    1.4461    7.2850    3.1571 C   0  0  0  0  0  0  0  0  0  0  0  0
    2.0446    8.4196    3.6042 C   0  0  0  0  0  0  0  0  0  0  0  0
    3.7559    8.4644    3.3444 S   0  0  0  0  0  0  0  0  0  0  0  0
    2.4212    5.0811    1.9887 C   0  0  0  0  0  0  0  0  0  0  0  0
    1.2935    4.2349    1.7654 C   0  0  0  0  0  0  0  0  0  0  0  0
    1.3885    2.5270    2.0450 S   0  0  0  0  0  0  0  0  0  0  0  0
   -0.2622    2.2619    1.5600 C   0  0  0  0  0  0  0  0  0  0  0  0
   -0.8776    3.4751    1.2466 C   0  0  0  0  0  0  0  0  0  0  0  0
    0.0125    4.5884    1.3388 C   0  0  0  0  0  0  0  0  0  0  0  0
   -0.4493    5.8633    0.9411 C   0  0  0  0  0  0  0  0  0  0  0  0
   -1.7483    6.0522    0.5761 C   0  0  0  0  0  0  0  0  0  0  0  0
   -2.2663    7.3896    0.1533 C   0  0  0  0  0  0  0  0  0  0  0  0
   -2.6631    4.9503    0.6080 C   0  0  0  0  0  0  0  0  0  0  0  0
   -3.9457    5.2721    0.2806 O   0  0  0  0  0  0  0  0  0  0  0  0
   -4.9065    4.2466    0.2573 C   0  0  0  0  0  0  0  0  0  0  0  0
   -2.2360    3.6904    0.9282 C   0  0  0  0  0  0  0  0  0  0  0  0
   -0.7702    0.9388    1.4910 C   0  0  0  0  0  0  0  0  0  0  0  0
   -0.2954   -0.2400    2.6683 S   0  0  0  0  0  0  0  0  0  0  0  0
   -1.1791   -1.5139    1.8821 C   0  0  0  0  0  0  0  0  0  0  0  0
   -1.8420   -1.0286    0.7522 C   0  0  0  0  0  0  0  0  0  0  0  0
   -1.5941    0.3610    0.5205 C   0  0  0  0  0  0  0  0  0  0  0  0
   -2.0788    0.9556   -0.6663 C   0  0  0  0  0  0  0  0  0  0  0  0
   -2.8379    0.2441   -1.5462 C   0  0  0  0  0  0  0  0  0  0  0  0
   -3.3429    0.8413   -2.8202 C   0  0  0  0  0  0  0  0  0  0  0  0
   -3.1712   -1.1168   -1.2535 C   0  0  0  0  0  0  0  0  0  0  0  0
   -3.9696   -1.7129   -2.1812 O   0  0  0  0  0  0  0  0  0  0  0  0
   -4.2863   -3.0727   -2.0231 C   0  0  0  0  0  0  0  0  0  0  0  0
   -2.6871   -1.7356   -0.1321 C   0  0  0  0  0  0  0  0  0  0  0  0
   -1.1303   -2.8376    2.4148 C   0  0  0  0  0  0  0  0  0  0  0  0
   -1.1788   -3.9725    1.6486 C   0  0  0  0  0  0  0  0  0  0  0  0
   -1.1710   -5.2807    2.1486 C   0  0  0  0  0  0  0  0  0  0  0  0
   -1.1689   -5.5291    3.5984 C   0  0  0  0  0  0  0  0  0  0  0  0
   -1.0467   -4.5642    4.5345 C   0  0  0  0  0  0  0  0  0  0  0  0
   -0.9518   -2.8922    4.1702 S   0  0  0  0  0  0  0  0  0  0  0  0
   -1.2717   -6.9376    3.7406 C   0  0  0  0  0  0  0  0  0  0  0  0
   -1.3249   -7.5360    2.4818 C   0  0  0  0  0  0  0  0  0  0  0  0
   -1.3943   -8.9453    2.5726 C   0  0  0  0  0  0  0  0  0  0  0  0
   -1.4020   -9.3646    3.8645 C   0  0  0  0  0  0  0  0  0  0  0  0
   -1.3181   -8.0818    5.0237 S   0  0  0  0  0  0  0  0  0  0  0  0
   -1.2341   -6.5069    1.4769 C   0  0  0  0  0  0  0  0  0  0  0  0
   -1.1829   -6.7412    0.0619 C   0  0  0  0  0  0  0  0  0  0  0  0
   -0.4462   -5.9941   -0.8159 C   0  0  0  0  0  0  0  0  0  0  0  0
   -0.3183   -6.2569   -2.1894 C   0  0  0  0  0  0  0  0  0  0  0  0
   -0.9199   -7.4587   -2.7900 C   0  0  0  0  0  0  0  0  0  0  0  0
   -1.7167   -8.3182   -2.1214 C   0  0  0  0  0  0  0  0  0  0  0  0
   -2.1328   -8.1322   -0.4687 S   0  0  0  0  0  0  0  0  0  0  0  0
   -0.4477   -7.4884   -4.1286 C   0  0  0  0  0  0  0  0  0  0  0  0
    0.3868   -6.3939   -4.3563 C   0  0  0  0  0  0  0  0  0  0  0  0
    0.8779   -6.3684   -5.6814 C   0  0  0  0  0  0  0  0  0  0  0  0
    0.4191   -7.4223   -6.4045 C   0  0  0  0  0  0  0  0  0  0  0  0
   -0.6260   -8.4838   -5.5207 S   0  0  0  0  0  0  0  0  0  0  0  0
    0.4531   -5.6072   -3.1543 C   0  0  0  0  0  0  0  0  0  0  0  0
    1.1602   -4.3626   -3.0087 C   0  0  0  0  0  0  0  0  0  0  0  0
    0.6773   -3.2986   -2.3083 C   0  0  0  0  0  0  0  0  0  0  0  0
    1.3286   -2.0588   -2.1773 C   0  0  0  0  0  0  0  0  0  0  0  0
    2.6524   -1.8127   -2.7865 C   0  0  0  0  0  0  0  0  0  0  0  0
    3.3123   -2.7271   -3.5266 C   0  0  0  0  0  0  0  0  0  0  0  0
    2.7118   -4.3025   -3.8480 S   0  0  0  0  0  0  0  0  0  0  0  0
    2.9608   -0.4662   -2.4575 C   0  0  0  0  0  0  0  0  0  0  0  0
    1.9027    0.0862   -1.7264 C   0  0  0  0  0  0  0  0  0  0  0  0
    2.1287    1.4440   -1.4047 C   0  0  0  0  0  0  0  0  0  0  0  0
    3.3246    1.8793   -1.8782 C   0  0  0  0  0  0  0  0  0  0  0  0
    4.2266    0.6692   -2.7336 S   0  0  0  0  0  0  0  0  0  0  0  0
    0.9015   -0.9101   -1.5549 C   0  0  0  0  0  0  0  0  0  0  0  0
    6.0926    2.6637    0.4228 H   0  0  0  0  0  0  0  0  0  0  0  0
    3.6996    2.8346    0.8350 H   0  0  0  0  0  0  0  0  0  0  0  0
    6.5051    6.8746    2.2228 H   0  0  0  0  0  0  0  0  0  0  0  0
    0.3941    7.0897    3.2608 H   0  0  0  0  0  0  0  0  0  0  0  0
    1.5826    9.2584    4.0872 H   0  0  0  0  0  0  0  0  0  0  0  0
    0.2445    6.6888    0.9148 H   0  0  0  0  0  0  0  0  0  0  0  0
   -1.4720    8.1312    0.1604 H   0  0  0  0  0  0  0  0  0  0  0  0
   -2.6912    7.3277   -0.8473 H   0  0  0  0  0  0  0  0  0  0  0  0
   -3.0630    7.7102    0.8229 H   0  0  0  0  0  0  0  0  0  0  0  0
   -5.0370    3.7953    1.2463 H   0  0  0  0  0  0  0  0  0  0  0  0
   -5.8378    4.7216   -0.0475 H   0  0  0  0  0  0  0  0  0  0  0  0
   -4.6442    3.4647   -0.4631 H   0  0  0  0  0  0  0  0  0  0  0  0
   -2.9105    2.8511    0.9592 H   0  0  0  0  0  0  0  0  0  0  0  0
   -1.8107    1.9764   -0.8897 H   0  0  0  0  0  0  0  0  0  0  0  0
   -4.4296    0.7814   -2.8586 H   0  0  0  0  0  0  0  0  0  0  0  0
   -2.9579    0.2813   -3.6711 H   0  0  0  0  0  0  0  0  0  0  0  0
   -3.0344    1.8796   -2.9090 H   0  0  0  0  0  0  0  0  0  0  0  0
   -4.8637   -3.2505   -1.1098 H   0  0  0  0  0  0  0  0  0  0  0  0
   -4.8917   -3.3376   -2.8885 H   0  0  0  0  0  0  0  0  0  0  0  0
   -3.3861   -3.6968   -2.0093 H   0  0  0  0  0  0  0  0  0  0  0  0
   -2.9480   -2.7543    0.0997 H   0  0  0  0  0  0  0  0  0  0  0  0
   -1.2108   -3.8366    0.5786 H   0  0  0  0  0  0  0  0  0  0  0  0
   -1.0008   -4.7826    5.5897 H   0  0  0  0  0  0  0  0  0  0  0  0
   -1.4347   -9.6200    1.7373 H   0  0  0  0  0  0  0  0  0  0  0  0
   -1.4517  -10.3732    4.2257 H   0  0  0  0  0  0  0  0  0  0  0  0
    0.1551   -5.1958   -0.4032 H   0  0  0  0  0  0  0  0  0  0  0  0
   -2.1494   -9.1913   -2.5842 H   0  0  0  0  0  0  0  0  0  0  0  0
    1.5346   -5.6177   -6.0818 H   0  0  0  0  0  0  0  0  0  0  0  0
    0.6293   -7.6565   -7.4298 H   0  0  0  0  0  0  0  0  0  0  0  0
   -0.3058   -3.3909   -1.8652 H   0  0  0  0  0  0  0  0  0  0  0  0
    4.2691   -2.5307   -3.9851 H   0  0  0  0  0  0  0  0  0  0  0  0
    1.4392    2.0665   -0.8631 H   0  0  0  0  0  0  0  0  0  0  0  0
    3.7530    2.8590   -1.7883 H   0  0  0  0  0  0  0  0  0  0  0  0
   -0.0287   -0.7819   -1.0411 H   0  0  0  0  0  0  0  0  0  0  0  0
  1  2  2  0  0  0  0
  2  3  1  0  0  0  0
  3  4  1  0  0  0  0
  4  5  2  0  0  0  0
  5  6  1  0  0  0  0
  4  7  1  0  0  0  0
  7  8  2  0  0  0  0
  8  9  1  0  0  0  0
  9 10  2  0  0  0  0
 10 11  1  0  0  0  0
  8 12  1  0  0  0  0
 12 13  1  0  0  0  0
 13 14  1  0  0  0  0
 14 15  1  0  0  0  0
 15 16  2  0  0  0  0
 16 17  1  0  0  0  0
 17 18  1  0  0  0  0
 18 19  2  0  0  0  0
 19 20  1  0  0  0  0
 19 21  1  0  0  0  0
 21 22  1  0  0  0  0
 22 23  1  0  0  0  0
 21 24  2  0  0  0  0
 15 25  1  0  0  0  0
 25 26  1  0  0  0  0
 26 27  1  0  0  0  0
 27 28  2  0  0  0  0
 28 29  1  0  0  0  0
 29 30  1  0  0  0  0
 30 31  2  0  0  0  0
 31 32  1  0  0  0  0
 31 33  1  0  0  0  0
 33 34  1  0  0  0  0
 34 35  1  0  0  0  0
 33 36  2  0  0  0  0
 27 37  1  0  0  0  0
 37 38  2  0  0  0  0
 38 39  1  0  0  0  0
 39 40  1  0  0  0  0
 40 41  2  0  0  0  0
 41 42  1  0  0  0  0
 40 43  1  0  0  0  0
 43 44  2  0  0  0  0
 44 45  1  0  0  0  0
 45 46  2  0  0  0  0
 46 47  1  0  0  0  0
 44 48  1  0  0  0  0
 48 49  1  0  0  0  0
 49 50  2  0  0  0  0
 50 51  1  0  0  0  0
 51 52  1  0  0  0  0
 52 53  2  0  0  0  0
 53 54  1  0  0  0  0
 52 55  1  0  0  0  0
 55 56  2  0  0  0  0
 56 57  1  0  0  0  0
 57 58  2  0  0  0  0
 58 59  1  0  0  0  0
 56 60  1  0  0  0  0
 60 61  1  0  0  0  0
 61 62  2  0  0  0  0
 62 63  1  0  0  0  0
 63 64  1  0  0  0  0
 64 65  2  0  0  0  0
 65 66  1  0  0  0  0
 64 67  1  0  0  0  0
 67 68  2  0  0  0  0
 68 69  1  0  0  0  0
 69 70  2  0  0  0  0
 70 71  1  0  0  0  0
 68 72  1  0  0  0  0
  6  1  1  0  0  0  0
 11  7  1  0  0  0  0
 17 13  2  0  0  0  0
 29 25  2  0  0  0  0
 42 37  1  0  0  0  0
 47 43  1  0  0  0  0
 54 49  1  0  0  0  0
 59 55  1  0  0  0  0
 66 61  1  0  0  0  0
 71 67  1  0  0  0  0
 12  3  2  0  0  0  0
 24 16  1  0  0  0  0
 36 28  1  0  0  0  0
 48 39  2  0  0  0  0
 60 51  2  0  0  0  0
 72 63  2  0  0  0  0
  1 73  1  0  0  0  0
  2 74  1  0  0  0  0
  5 75  1  0  0  0  0
  9 76  1  0  0  0  0
 10 77  1  0  0  0  0
 18 78  1  0  0  0  0
 20 79  1  0  0  0  0
 20 80  1  0  0  0  0
 20 81  1  0  0  0  0
 23 82  1  0  0  0  0
 23 83  1  0  0  0  0
 23 84  1  0  0  0  0
 24 85  1  0  0  0  0
 30 86  1  0  0  0  0
 32 87  1  0  0  0  0
 32 88  1  0  0  0  0
 32 89  1  0  0  0  0
 35 90  1  0  0  0  0
 35 91  1  0  0  0  0
 35 92  1  0  0  0  0
 36 93  1  0  0  0  0
 38 94  1  0  0  0  0
 41 95  1  0  0  0  0
 45 96  1  0  0  0  0
 46 97  1  0  0  0  0
 50 98  1  0  0  0  0
 53 99  1  0  0  0  0
 57100  1  0  0  0  0
 58101  1  0  0  0  0
 62102  1  0  0  0  0
 65103  1  0  0  0  0
 69104  1  0  0  0  0
 70105  1  0  0  0  0
 72106  1  0  0  0  0
M  END
