
  xtb     03042200363D
 energy: -184.227384168849 gnorm: 0.000308067748 xtb: 6.4.1 (unknown)
 94101  0     0  0            999 V2000
    4.8648   -2.2416    0.8231 C   0  0  0  0  0  0  0  0  0  0  0  0
    3.6285   -2.4649    1.9731 S   0  0  0  0  0  0  0  0  0  0  0  0
    2.8678   -0.9519    1.5615 C   0  0  0  0  0  0  0  0  0  0  0  0
    3.5487   -0.3354    0.5096 C   0  0  0  0  0  0  0  0  0  0  0  0
    4.7095   -1.0750    0.1091 C   0  0  0  0  0  0  0  0  0  0  0  0
    5.5336   -0.5705   -0.9268 C   0  0  0  0  0  0  0  0  0  0  0  0
    5.2071    0.5833   -1.5672 C   0  0  0  0  0  0  0  0  0  0  0  0
    6.0531    1.1593   -2.6565 C   0  0  0  0  0  0  0  0  0  0  0  0
    3.9968    1.2754   -1.2172 C   0  0  0  0  0  0  0  0  0  0  0  0
    3.7549    2.3781   -1.9638 O   0  0  0  0  0  0  0  0  0  0  0  0
    2.5680    3.1041   -1.7358 C   0  0  0  0  0  0  0  0  0  0  0  0
    3.1865    0.8239   -0.2082 C   0  0  0  0  0  0  0  0  0  0  0  0
    1.7297   -0.5230    2.2962 C   0  0  0  0  0  0  0  0  0  0  0  0
    0.5716   -1.6877    2.8493 S   0  0  0  0  0  0  0  0  0  0  0  0
   -0.3972   -0.4746    3.6338 C   0  0  0  0  0  0  0  0  0  0  0  0
    0.1567    0.7961    3.4596 C   0  0  0  0  0  0  0  0  0  0  0  0
    1.3784    0.7633    2.7194 C   0  0  0  0  0  0  0  0  0  0  0  0
    2.1188    1.9570    2.5693 C   0  0  0  0  0  0  0  0  0  0  0  0
    1.6329    3.1428    3.0323 C   0  0  0  0  0  0  0  0  0  0  0  0
    2.3889    4.4235    2.8815 C   0  0  0  0  0  0  0  0  0  0  0  0
    0.3564    3.1818    3.6809 C   0  0  0  0  0  0  0  0  0  0  0  0
   -0.0466    4.4228    4.0520 O   0  0  0  0  0  0  0  0  0  0  0  0
   -1.2861    4.5656    4.7029 C   0  0  0  0  0  0  0  0  0  0  0  0
   -0.3539    2.0310    3.9057 C   0  0  0  0  0  0  0  0  0  0  0  0
   -1.5485   -0.9006    4.3424 C   0  0  0  0  0  0  0  0  0  0  0  0
   -1.9953   -2.1597    4.0952 O   0  0  0  0  0  0  0  0  0  0  0  0
   -3.0596   -2.4168    4.8745 C   0  0  0  0  0  0  0  0  0  0  0  0
   -3.2958   -1.2863    5.6667 C   0  0  0  0  0  0  0  0  0  0  0  0
   -2.3348   -0.3163    5.3145 C   0  0  0  0  0  0  0  0  0  0  0  0
   -4.2958   -1.0992    6.6419 N   0  0  0  0  0  4  0  0  0  0  0  0
   -5.0670   -2.0153    6.8644 O   0  0  0  0  0  1  0  0  0  0  0  0
   -4.3229   -0.0234    7.2090 O   0  0  0  0  0  0  0  0  0  0  0  0
   -3.7307   -3.6706    4.8577 C   0  0  0  0  0  0  0  0  0  0  0  0
   -3.6970   -4.6241    3.8953 C   0  0  0  0  0  0  0  0  0  0  0  0
   -3.1408   -4.5531    2.5819 C   0  0  0  0  0  0  0  0  0  0  0  0
   -2.6884   -3.3931    2.0466 O   0  0  0  0  0  0  0  0  0  0  0  0
   -2.3225   -3.5974    0.7734 C   0  0  0  0  0  0  0  0  0  0  0  0
   -2.5170   -4.9505    0.4753 C   0  0  0  0  0  0  0  0  0  0  0  0
   -3.0496   -5.5527    1.6369 C   0  0  0  0  0  0  0  0  0  0  0  0
   -2.1655   -5.6621   -0.6910 N   0  0  0  0  0  4  0  0  0  0  0  0
   -2.4046   -6.8525   -0.7089 O   0  0  0  0  0  1  0  0  0  0  0  0
   -1.6394   -5.0494   -1.6049 O   0  0  0  0  0  0  0  0  0  0  0  0
   -1.7419   -2.4790    0.0903 C   0  0  0  0  0  0  0  0  0  0  0  0
   -1.8223   -2.1254   -1.2070 C   0  0  0  0  0  0  0  0  0  0  0  0
   -2.6714   -2.6681   -2.2193 C   0  0  0  0  0  0  0  0  0  0  0  0
   -2.4184   -2.2940   -3.4982 O   0  0  0  0  0  0  0  0  0  0  0  0
   -3.3353   -2.8299   -4.3117 C   0  0  0  0  0  0  0  0  0  0  0  0
   -4.2347   -3.5655   -3.5255 C   0  0  0  0  0  0  0  0  0  0  0  0
   -3.8063   -3.4498   -2.1897 C   0  0  0  0  0  0  0  0  0  0  0  0
   -5.3803   -4.2883   -3.9335 N   0  0  0  0  0  4  0  0  0  0  0  0
   -6.0328   -4.8214   -3.0609 O   0  0  0  0  0  1  0  0  0  0  0  0
   -5.6468   -4.3258   -5.1198 O   0  0  0  0  0  0  0  0  0  0  0  0
   -3.3171   -2.6636   -5.7256 C   0  0  0  0  0  0  0  0  0  0  0  0
   -2.5423   -1.8659   -6.4962 C   0  0  0  0  0  0  0  0  0  0  0  0
   -1.5762   -0.8707   -6.1493 C   0  0  0  0  0  0  0  0  0  0  0  0
   -0.8700   -0.3482   -7.1922 O   0  0  0  0  0  0  0  0  0  0  0  0
   -0.0389    0.6053   -6.7534 C   0  0  0  0  0  0  0  0  0  0  0  0
   -0.2096    0.7179   -5.3675 C   0  0  0  0  0  0  0  0  0  0  0  0
   -1.1910   -0.2306   -4.9969 C   0  0  0  0  0  0  0  0  0  0  0  0
    0.3933    1.5587   -4.4093 N   0  0  0  0  0  4  0  0  0  0  0  0
    1.0951    2.4816   -4.7716 O   0  0  0  0  0  1  0  0  0  0  0  0
    0.1542    1.3093   -3.2404 O   0  0  0  0  0  0  0  0  0  0  0  0
    0.7902    1.2016   -7.7663 C   0  0  0  0  0  0  0  0  0  0  0  0
    1.6997    2.1641   -7.6196 C   0  0  0  0  0  0  0  0  0  0  0  0
    5.6412   -2.9739    0.7258 H   0  0  0  0  0  0  0  0  0  0  0  0
    6.4214   -1.1205   -1.2008 H   0  0  0  0  0  0  0  0  0  0  0  0
    5.4709    1.2532   -3.5716 H   0  0  0  0  0  0  0  0  0  0  0  0
    6.3833    2.1597   -2.3810 H   0  0  0  0  0  0  0  0  0  0  0  0
    6.9219    0.5344   -2.8440 H   0  0  0  0  0  0  0  0  0  0  0  0
    2.5655    3.8990   -2.4795 H   0  0  0  0  0  0  0  0  0  0  0  0
    2.5527    3.5384   -0.7308 H   0  0  0  0  0  0  0  0  0  0  0  0
    1.6836    2.4773   -1.8741 H   0  0  0  0  0  0  0  0  0  0  0  0
    2.2636    1.3213    0.0374 H   0  0  0  0  0  0  0  0  0  0  0  0
    3.0882    1.9179    2.0981 H   0  0  0  0  0  0  0  0  0  0  0  0
    3.3434    4.2540    2.3905 H   0  0  0  0  0  0  0  0  0  0  0  0
    1.8051    5.1350    2.2992 H   0  0  0  0  0  0  0  0  0  0  0  0
    2.5626    4.8726    3.8578 H   0  0  0  0  0  0  0  0  0  0  0  0
   -1.3020    4.0310    5.6577 H   0  0  0  0  0  0  0  0  0  0  0  0
   -1.4014    5.6325    4.8864 H   0  0  0  0  0  0  0  0  0  0  0  0
   -2.1115    4.2146    4.0757 H   0  0  0  0  0  0  0  0  0  0  0  0
   -1.3050    2.0477    4.4070 H   0  0  0  0  0  0  0  0  0  0  0  0
   -2.2410    0.6494    5.7616 H   0  0  0  0  0  0  0  0  0  0  0  0
   -4.3396   -3.8507    5.7328 H   0  0  0  0  0  0  0  0  0  0  0  0
   -4.2010   -5.5583    4.0959 H   0  0  0  0  0  0  0  0  0  0  0  0
   -3.3101   -6.5851    1.7422 H   0  0  0  0  0  0  0  0  0  0  0  0
   -1.1782   -1.8353    0.7527 H   0  0  0  0  0  0  0  0  0  0  0  0
   -1.2080   -1.3008   -1.5432 H   0  0  0  0  0  0  0  0  0  0  0  0
   -4.3005   -3.8719   -1.3398 H   0  0  0  0  0  0  0  0  0  0  0  0
   -4.0373   -3.2933   -6.2304 H   0  0  0  0  0  0  0  0  0  0  0  0
   -2.6602   -1.9628   -7.5678 H   0  0  0  0  0  0  0  0  0  0  0  0
   -1.5509   -0.3753   -4.0030 H   0  0  0  0  0  0  0  0  0  0  0  0
    0.6055    0.7689   -8.7418 H   0  0  0  0  0  0  0  0  0  0  0  0
    1.9061    2.6286   -6.6724 H   0  0  0  0  0  0  0  0  0  0  0  0
    2.2594    2.5113   -8.4707 H   0  0  0  0  0  0  0  0  0  0  0  0
  1  2  1  0  0  0  0
  2  3  1  0  0  0  0
  3  4  2  0  0  0  0
  4  5  1  0  0  0  0
  5  6  1  0  0  0  0
  6  7  2  0  0  0  0
  7  8  1  0  0  0  0
  7  9  1  0  0  0  0
  9 10  1  0  0  0  0
 10 11  1  0  0  0  0
  9 12  2  0  0  0  0
  3 13  1  0  0  0  0
 13 14  1  0  0  0  0
 14 15  1  0  0  0  0
 15 16  2  0  0  0  0
 16 17  1  0  0  0  0
 17 18  1  0  0  0  0
 18 19  2  0  0  0  0
 19 20  1  0  0  0  0
 19 21  1  0  0  0  0
 21 22  1  0  0  0  0
 22 23  1  0  0  0  0
 21 24  2  0  0  0  0
 15 25  1  0  0  0  0
 25 26  1  0  0  0  0
 26 27  1  0  0  0  0
 27 28  2  0  0  0  0
 28 29  1  0  0  0  0
 28 30  1  0  0  0  0
 30 31  1  0  0  0  0
 30 32  2  0  0  0  0
 27 33  1  0  0  0  0
 33 34  2  0  0  0  0
 34 35  1  0  0  0  0
 35 36  1  0  0  0  0
 36 37  1  0  0  0  0
 37 38  2  0  0  0  0
 38 39  1  0  0  0  0
 38 40  1  0  0  0  0
 40 41  1  0  0  0  0
 40 42  2  0  0  0  0
 37 43  1  0  0  0  0
 43 44  2  0  0  0  0
 44 45  1  0  0  0  0
 45 46  1  0  0  0  0
 46 47  1  0  0  0  0
 47 48  2  0  0  0  0
 48 49  1  0  0  0  0
 48 50  1  0  0  0  0
 50 51  1  0  0  0  0
 50 52  2  0  0  0  0
 47 53  1  0  0  0  0
 53 54  2  0  0  0  0
 54 55  1  0  0  0  0
 55 56  1  0  0  0  0
 56 57  1  0  0  0  0
 57 58  2  0  0  0  0
 58 59  1  0  0  0  0
 58 60  1  0  0  0  0
 60 61  1  0  0  0  0
 60 62  2  0  0  0  0
 57 63  1  0  0  0  0
 63 64  2  0  0  0  0
  5  1  2  0  0  0  0
 17 13  2  0  0  0  0
 29 25  2  0  0  0  0
 39 35  2  0  0  0  0
 49 45  2  0  0  0  0
 59 55  2  0  0  0  0
 12  4  1  0  0  0  0
 24 16  1  0  0  0  0
  1 65  1  0  0  0  0
  6 66  1  0  0  0  0
  8 67  1  0  0  0  0
  8 68  1  0  0  0  0
  8 69  1  0  0  0  0
 11 70  1  0  0  0  0
 11 71  1  0  0  0  0
 11 72  1  0  0  0  0
 12 73  1  0  0  0  0
 18 74  1  0  0  0  0
 20 75  1  0  0  0  0
 20 76  1  0  0  0  0
 20 77  1  0  0  0  0
 23 78  1  0  0  0  0
 23 79  1  0  0  0  0
 23 80  1  0  0  0  0
 24 81  1  0  0  0  0
 29 82  1  0  0  0  0
 33 83  1  0  0  0  0
 34 84  1  0  0  0  0
 39 85  1  0  0  0  0
 43 86  1  0  0  0  0
 44 87  1  0  0  0  0
 49 88  1  0  0  0  0
 53 89  1  0  0  0  0
 54 90  1  0  0  0  0
 59 91  1  0  0  0  0
 63 92  1  0  0  0  0
 64 93  1  0  0  0  0
 64 94  1  0  0  0  0
M  CHG  1  30   1
M  CHG  1  31  -1
M  CHG  1  40   1
M  CHG  1  41  -1
M  CHG  1  50   1
M  CHG  1  51  -1
M  CHG  1  60   1
M  CHG  1  61  -1
M  END
