122

C          8.10870       -0.62040       -5.94460
S          7.09160       -1.81800       -5.28910
C          5.87650       -0.65230       -4.86320
C          6.26460        0.62870       -5.23560
C          7.57100        0.64170       -5.84760
C          8.13000        1.86610       -6.32850
C          9.48490        1.97040       -6.85610
C         10.54840        1.31000       -6.41540
C          7.33680        2.98290       -6.27690
C          6.04680        2.95920       -5.71690
C          5.49630        1.82760       -5.18140
C          4.12020        1.85590       -4.59770
C          4.71150       -1.12840       -4.16300
S          4.46880       -0.71240       -2.50140
C          3.11340       -1.79080       -2.33770
C          2.89350       -2.49280       -3.52520
C          3.78780       -2.08120       -4.57450
C          3.66600       -2.62340       -5.88890
C          4.42610       -2.08120       -7.00960
C          4.88340       -2.79610       -8.02920
C          2.75930       -3.63650       -6.07100
C          1.98640       -4.13330       -5.01090
C          2.01790       -3.59120       -3.75280
C          1.18900       -4.20080       -2.66800
C          2.39320       -1.74750       -1.10640
S          0.66990       -1.52740       -1.05370
C          0.64040       -1.44380        0.68140
C          1.93930       -1.50300        1.19480
C          2.92820       -1.68190        0.18180
C          4.28210       -1.81450        0.56250
C          4.65290       -1.71230        1.86970
C          6.07620       -1.85270        2.30430
C          3.66320       -1.44060        2.86780
O          4.15460       -1.31480        4.13340
C          3.24680       -1.08180        5.18040
C          2.34010       -1.33240        2.53710
C         -0.58670       -1.31020        1.37990
S         -1.87250       -0.34500        0.72230
C         -2.86060       -0.54290        2.13480
C         -2.24260       -1.39270        3.05080
C         -0.95880       -1.84000        2.61940
C         -0.27560       -2.79830        3.40110
C         -0.79220       -3.23040        4.58620
C         -0.08360       -4.23380        5.44000
C         -2.06190       -2.74010        5.03040
O         -2.47190       -3.23780        6.23150
C         -3.70490       -2.80180        6.74570
C         -2.78320       -1.86600        4.26530
C         -4.13260        0.08790        2.24290
S         -5.21540        0.03930        0.89250
C         -6.51980        0.72010        1.81120
C         -6.12590        0.99960        3.11570
C         -4.73900        0.68690        3.34890
C         -4.13360        1.04130        4.59000
C         -2.68950        1.04840        4.82820
C         -1.78930        1.52810        3.98270
C         -4.95300        1.50550        5.58900
C         -6.31410        1.77110        5.37110
C         -6.90700        1.58790        4.15190
C         -8.32200        2.02030        3.93410
C         -7.80220        0.80880        1.16220
S         -9.10480       -0.22880        1.65710
C        -10.09920        0.28430        0.37000
C         -9.47260        1.20200       -0.44080
C         -8.14470        1.51310        0.01660
C         -7.36390        2.48180       -0.68430
C         -6.06840        2.92170       -0.17530
C         -5.02340        3.22510       -0.93290
C         -7.90300        3.02760       -1.82050
C         -9.19170        2.69250       -2.28280
C         -9.99510        1.81460       -1.61600
C        -11.38020        1.48450       -2.07370
H          9.03100       -0.91390       -6.40210
H          9.61050        2.71260       -7.63600
H         10.49270        0.60960       -5.59990
H         11.52430        1.47060       -6.84140
H          7.71710        3.92060       -6.65700
H          5.47650        3.87720       -5.70940
H          3.61390        2.77810       -4.87330
H          3.52990        1.01090       -4.94960
H          4.16470        1.80200       -3.50990
H          4.59730       -1.01200       -6.98670
H          5.41050       -2.33800       -8.84840
H          4.76770       -3.86620       -8.07210
H          2.62910       -4.06070       -7.05510
H          1.33200       -4.97160       -5.20330
H          0.25770       -3.65080       -2.53420
H          1.72360       -4.19700       -1.72010
H          0.93880       -5.22730       -2.92720
H          5.02830       -2.00030       -0.19490
H          6.16820       -2.66120        3.02800
H          6.40740       -0.93950        2.79630
H          6.72160       -2.05600        1.45420
H          3.84480       -1.05850        6.09020
H          2.50200       -1.88120        5.25410
H          2.73230       -0.12260        5.06100
H          1.58820       -1.10310        3.27280
H          0.65440       -3.20790        3.03760
H          0.85890       -4.53100        4.98740
H          0.10610       -3.81650        6.42810
H         -0.70760       -5.11540        5.57780
H         -3.80890       -3.28590        7.71560
H         -4.53850       -3.09920        6.10130
H         -3.72480       -1.71480        6.87680
H         -3.76840       -1.53850        4.55070
H         -2.37900        0.72890        5.81600
H         -2.06230        1.90350        3.01120
H         -0.74300        1.56750        4.23320
H         -4.52440        1.75300        6.55000
H         -6.89190        2.18910        6.18290
H         -8.43390        2.51290        2.96990
H         -8.99530        1.16320        3.95390
H         -8.62650        2.70920        4.71880
H        -11.08530       -0.12330        0.27740
H         -5.99390        3.00310        0.90240
H         -4.09530        3.56580       -0.50700
H         -5.04780        3.11720       -2.00430
H         -7.33880        3.77050       -2.36420
H         -9.55370        3.17000       -3.18240
H        -11.62400        2.02970       -2.98200
H        -12.10700        1.74470       -1.30440
H        -11.47160        0.41680       -2.27150
