
  xtb     03032204443D
 energy: -456.292281516702 gnorm: 0.000197712249 xtb: 6.4.1 (unknown)
232258  0     0  0            999 V2000
   -6.2668   -4.3592   14.0440 C   0  0  0  0  0  0  0  0  0  0  0  0
   -6.8370   -3.1404   13.9558 C   0  0  0  0  0  0  0  0  0  0  0  0
   -7.1890   -2.7891   12.6200 C   0  0  0  0  0  0  0  0  0  0  0  0
   -7.8075   -1.6131   12.1612 C   0  0  0  0  0  0  0  0  0  0  0  0
   -8.2608   -0.5884   13.0876 C   0  0  0  0  0  0  0  0  0  0  0  0
   -7.7806    1.0729   12.9105 S   0  0  0  0  0  0  0  0  0  0  0  0
   -8.6807    1.5628   14.3054 C   0  0  0  0  0  0  0  0  0  0  0  0
   -8.6532    2.9730   14.7821 C   0  0  0  0  0  0  0  0  0  0  0  0
   -7.3845    3.2542   15.5905 C   0  0  0  0  0  0  0  0  0  0  0  0
   -9.3096    0.4907   14.8643 C   0  0  0  0  0  0  0  0  0  0  0  0
  -10.3007    0.5818   16.2627 Cl  0  0  0  0  0  0  0  0  0  0  0  0
   -9.0778   -0.7297   14.1744 C   0  0  0  0  0  0  0  0  0  0  0  0
   -9.8249   -2.2061   14.6324 Cl  0  0  0  0  0  0  0  0  0  0  0  0
   -7.9598   -1.4765   10.7892 C   0  0  0  0  0  0  0  0  0  0  0  0
   -7.5641   -2.4772    9.8701 C   0  0  0  0  0  0  0  0  0  0  0  0
   -7.0163   -3.6866   10.3328 C   0  0  0  0  0  0  0  0  0  0  0  0
   -6.6838   -4.7455    9.3959 C   0  0  0  0  0  0  0  0  0  0  0  0
   -5.1075   -5.4778    9.3525 S   0  0  0  0  0  0  0  0  0  0  0  0
   -5.5331   -6.4999    8.0233 C   0  0  0  0  0  0  0  0  0  0  0  0
   -4.5416   -7.4146    7.3931 C   0  0  0  0  0  0  0  0  0  0  0  0
   -3.8441   -6.7321    6.2136 C   0  0  0  0  0  0  0  0  0  0  0  0
   -6.8240   -6.2758    7.6466 C   0  0  0  0  0  0  0  0  0  0  0  0
   -7.4813   -5.2867    8.4240 C   0  0  0  0  0  0  0  0  0  0  0  0
   -9.1356   -4.8862    8.1984 Cl  0  0  0  0  0  0  0  0  0  0  0  0
   -7.5986   -7.1033    6.3588 Cl  0  0  0  0  0  0  0  0  0  0  0  0
   -6.8176   -3.8005   11.7024 C   0  0  0  0  0  0  0  0  0  0  0  0
   -6.1088   -5.1642   12.5205 S   0  0  0  0  0  0  0  0  0  0  0  0
   -7.7664   -2.0733    8.5333 C   0  0  0  0  0  0  0  0  0  0  0  0
   -8.3369   -0.8356    8.4000 C   0  0  0  0  0  0  0  0  0  0  0  0
   -8.6470   -0.1030    9.9647 S   0  0  0  0  0  0  0  0  0  0  0  0
   -8.6093   -0.2045    7.1580 C   0  0  0  0  0  0  0  0  0  0  0  0
   -8.1165   -1.0364    5.7206 S   0  0  0  0  0  0  0  0  0  0  0  0
   -8.6317    0.2500    4.6843 C   0  0  0  0  0  0  0  0  0  0  0  0
   -9.2209    1.2774    5.4287 C   0  0  0  0  0  0  0  0  0  0  0  0
   -9.1959    1.0240    6.8366 C   0  0  0  0  0  0  0  0  0  0  0  0
   -9.7371    1.9879    7.7130 C   0  0  0  0  0  0  0  0  0  0  0  0
  -10.2877    3.1398    7.2337 C   0  0  0  0  0  0  0  0  0  0  0  0
  -10.8620    4.1790    8.1405 C   0  0  0  0  0  0  0  0  0  0  0  0
  -10.3406    3.3681    5.8219 C   0  0  0  0  0  0  0  0  0  0  0  0
  -10.9339    4.5359    5.4588 O   0  0  0  0  0  0  0  0  0  0  0  0
  -11.0083    4.8567    4.0916 C   0  0  0  0  0  0  0  0  0  0  0  0
   -9.8256    2.4533    4.9419 C   0  0  0  0  0  0  0  0  0  0  0  0
   -8.3292    0.1514    3.3009 C   0  0  0  0  0  0  0  0  0  0  0  0
   -8.2227    1.1299    2.3505 C   0  0  0  0  0  0  0  0  0  0  0  0
   -7.7583    0.6623    1.0992 C   0  0  0  0  0  0  0  0  0  0  0  0
   -7.4295    1.4299   -0.0355 C   0  0  0  0  0  0  0  0  0  0  0  0
   -7.7154    2.8543   -0.0695 C   0  0  0  0  0  0  0  0  0  0  0  0
   -9.3231    3.4281    0.2848 S   0  0  0  0  0  0  0  0  0  0  0  0
   -8.8823    5.0814    0.0194 C   0  0  0  0  0  0  0  0  0  0  0  0
   -9.8905    6.1728    0.1160 C   0  0  0  0  0  0  0  0  0  0  0  0
  -10.7216    6.2634   -1.1660 C   0  0  0  0  0  0  0  0  0  0  0  0
   -7.5678    5.1663   -0.3264 C   0  0  0  0  0  0  0  0  0  0  0  0
   -6.7625    6.6420   -0.6697 Cl  0  0  0  0  0  0  0  0  0  0  0  0
   -6.9010    3.9103   -0.3695 C   0  0  0  0  0  0  0  0  0  0  0  0
   -5.2188    3.7882   -0.6723 Cl  0  0  0  0  0  0  0  0  0  0  0  0
   -6.8285    0.7601   -1.0936 C   0  0  0  0  0  0  0  0  0  0  0  0
   -6.5864   -0.6376   -1.0782 C   0  0  0  0  0  0  0  0  0  0  0  0
   -6.9084   -1.4022    0.0562 C   0  0  0  0  0  0  0  0  0  0  0  0
   -6.5572   -2.8087    0.1596 C   0  0  0  0  0  0  0  0  0  0  0  0
   -7.7197   -3.9863    0.6943 S   0  0  0  0  0  0  0  0  0  0  0  0
   -6.5677   -5.2735    0.6267 C   0  0  0  0  0  0  0  0  0  0  0  0
   -6.9180   -6.6505    1.0712 C   0  0  0  0  0  0  0  0  0  0  0  0
   -6.6158   -6.8238    2.5624 C   0  0  0  0  0  0  0  0  0  0  0  0
   -5.3568   -4.8020    0.2152 C   0  0  0  0  0  0  0  0  0  0  0  0
   -5.3433   -3.4067   -0.0494 C   0  0  0  0  0  0  0  0  0  0  0  0
   -3.8994   -2.5792   -0.4801 Cl  0  0  0  0  0  0  0  0  0  0  0  0
   -3.9638   -5.7853    0.0292 Cl  0  0  0  0  0  0  0  0  0  0  0  0
   -7.4984   -0.7292    1.1153 C   0  0  0  0  0  0  0  0  0  0  0  0
   -7.8822   -1.4239    2.6612 S   0  0  0  0  0  0  0  0  0  0  0  0
   -5.9431   -1.0769   -2.2566 C   0  0  0  0  0  0  0  0  0  0  0  0
   -5.6186   -0.0641   -3.1113 C   0  0  0  0  0  0  0  0  0  0  0  0
   -6.2379    1.4807   -2.5657 S   0  0  0  0  0  0  0  0  0  0  0  0
   -4.6571   -0.1447   -4.1599 C   0  0  0  0  0  0  0  0  0  0  0  0
   -3.9841    0.8801   -4.7574 C   0  0  0  0  0  0  0  0  0  0  0  0
   -2.8222    0.4601   -5.4519 C   0  0  0  0  0  0  0  0  0  0  0  0
   -1.8227    1.2723   -6.0181 C   0  0  0  0  0  0  0  0  0  0  0  0
   -2.0130    2.7114   -6.1097 C   0  0  0  0  0  0  0  0  0  0  0  0
   -3.3984    3.3607   -6.9386 S   0  0  0  0  0  0  0  0  0  0  0  0
   -2.9309    4.9936   -6.6085 C   0  0  0  0  0  0  0  0  0  0  0  0
   -3.7855    6.1396   -7.0239 C   0  0  0  0  0  0  0  0  0  0  0  0
   -4.9058    6.3764   -6.0080 C   0  0  0  0  0  0  0  0  0  0  0  0
   -1.7741    5.0167   -5.8889 C   0  0  0  0  0  0  0  0  0  0  0  0
   -1.0036    6.4564   -5.3624 Cl  0  0  0  0  0  0  0  0  0  0  0  0
   -1.2487    3.7264   -5.6061 C   0  0  0  0  0  0  0  0  0  0  0  0
    0.1491    3.5031   -4.6407 Cl  0  0  0  0  0  0  0  0  0  0  0  0
   -0.6515    0.6414   -6.4153 C   0  0  0  0  0  0  0  0  0  0  0  0
   -0.4656   -0.7614   -6.3190 C   0  0  0  0  0  0  0  0  0  0  0  0
   -1.4996   -1.5837   -5.8375 C   0  0  0  0  0  0  0  0  0  0  0  0
   -1.3294   -3.0219   -5.7426 C   0  0  0  0  0  0  0  0  0  0  0  0
   -1.6864   -3.8772   -4.2706 S   0  0  0  0  0  0  0  0  0  0  0  0
   -1.2132   -5.3987   -4.9466 C   0  0  0  0  0  0  0  0  0  0  0  0
   -1.2914   -6.6492   -4.1419 C   0  0  0  0  0  0  0  0  0  0  0  0
   -2.6875   -6.8531   -3.5558 C   0  0  0  0  0  0  0  0  0  0  0  0
   -0.8097   -5.2371   -6.2384 C   0  0  0  0  0  0  0  0  0  0  0  0
   -0.8714   -3.8924   -6.6933 C   0  0  0  0  0  0  0  0  0  0  0  0
   -0.4870   -3.4490   -8.3066 Cl  0  0  0  0  0  0  0  0  0  0  0  0
   -0.2648   -6.5171   -7.2448 Cl  0  0  0  0  0  0  0  0  0  0  0  0
   -2.6403   -0.9419   -5.3771 C   0  0  0  0  0  0  0  0  0  0  0  0
   -3.9533   -1.7078   -4.5328 S   0  0  0  0  0  0  0  0  0  0  0  0
    0.8646   -1.1384   -6.6157 C   0  0  0  0  0  0  0  0  0  0  0  0
    1.6699   -0.0858   -6.9366 C   0  0  0  0  0  0  0  0  0  0  0  0
    0.7967    1.4303   -6.9758 S   0  0  0  0  0  0  0  0  0  0  0  0
    3.0915   -0.1150   -7.0357 C   0  0  0  0  0  0  0  0  0  0  0  0
    3.9553    0.9352   -6.9428 C   0  0  0  0  0  0  0  0  0  0  0  0
    5.3096    0.5405   -6.8111 C   0  0  0  0  0  0  0  0  0  0  0  0
    6.4315    1.3631   -6.6002 C   0  0  0  0  0  0  0  0  0  0  0  0
    6.3275    2.8068   -6.6944 C   0  0  0  0  0  0  0  0  0  0  0  0
    6.9632    3.8507   -5.4578 S   0  0  0  0  0  0  0  0  0  0  0  0
    6.4525    5.2788   -6.2910 C   0  0  0  0  0  0  0  0  0  0  0  0
    6.7541    6.6305   -5.7455 C   0  0  0  0  0  0  0  0  0  0  0  0
    8.2253    6.9906   -5.9635 C   0  0  0  0  0  0  0  0  0  0  0  0
    5.8382    4.9506   -7.4627 C   0  0  0  0  0  0  0  0  0  0  0  0
    5.2073    6.0994   -8.5705 Cl  0  0  0  0  0  0  0  0  0  0  0  0
    5.7585    3.5511   -7.6925 C   0  0  0  0  0  0  0  0  0  0  0  0
    5.0913    2.8921   -9.1299 Cl  0  0  0  0  0  0  0  0  0  0  0  0
    7.6191    0.7253   -6.2645 C   0  0  0  0  0  0  0  0  0  0  0  0
    7.7489   -0.6842   -6.2215 C   0  0  0  0  0  0  0  0  0  0  0  0
    6.6599   -1.5076   -6.5634 C   0  0  0  0  0  0  0  0  0  0  0  0
    6.8032   -2.9500   -6.6267 C   0  0  0  0  0  0  0  0  0  0  0  0
    5.6584   -4.0157   -5.8653 S   0  0  0  0  0  0  0  0  0  0  0  0
    6.5081   -5.4312   -6.3852 C   0  0  0  0  0  0  0  0  0  0  0  0
    5.9833   -6.7907   -6.0818 C   0  0  0  0  0  0  0  0  0  0  0  0
    4.7629   -7.1103   -6.9480 C   0  0  0  0  0  0  0  0  0  0  0  0
    7.6067   -5.0834   -7.1129 C   0  0  0  0  0  0  0  0  0  0  0  0
    7.7798   -3.6797   -7.2505 C   0  0  0  0  0  0  0  0  0  0  0  0
    9.0478   -3.0061   -8.1925 Cl  0  0  0  0  0  0  0  0  0  0  0  0
    8.7031   -6.2116   -7.7996 Cl  0  0  0  0  0  0  0  0  0  0  0  0
    5.4500   -0.8691   -6.8007 C   0  0  0  0  0  0  0  0  0  0  0  0
    3.9194   -1.6600   -7.0442 S   0  0  0  0  0  0  0  0  0  0  0  0
    9.0205   -1.0834   -5.7476 C   0  0  0  0  0  0  0  0  0  0  0  0
    9.8521   -0.0370   -5.4726 C   0  0  0  0  0  0  0  0  0  0  0  0
    9.1042    1.5090   -5.8075 S   0  0  0  0  0  0  0  0  0  0  0  0
   11.1731   -0.1117   -4.9371 C   0  0  0  0  0  0  0  0  0  0  0  0
   11.8508   -1.2427   -4.5870 C   0  0  0  0  0  0  0  0  0  0  0  0
   13.1436   -0.9891   -4.0685 C   0  0  0  0  0  0  0  0  0  0  0  0
   14.1018   -1.9218   -3.6359 C   0  0  0  0  0  0  0  0  0  0  0  0
   13.8555   -3.3480   -3.7605 C   0  0  0  0  0  0  0  0  0  0  0  0
   14.0176   -4.4184   -2.3997 S   0  0  0  0  0  0  0  0  0  0  0  0
   13.5196   -5.7947   -3.3229 C   0  0  0  0  0  0  0  0  0  0  0  0
   13.4732   -7.1532   -2.7157 C   0  0  0  0  0  0  0  0  0  0  0  0
   14.8618   -7.7966   -2.7114 C   0  0  0  0  0  0  0  0  0  0  0  0
   13.2641   -5.4339   -4.6123 C   0  0  0  0  0  0  0  0  0  0  0  0
   12.7453   -6.5265   -5.8304 Cl  0  0  0  0  0  0  0  0  0  0  0  0
   13.4489   -4.0478   -4.8640 C   0  0  0  0  0  0  0  0  0  0  0  0
   13.2510   -3.3658   -6.4280 Cl  0  0  0  0  0  0  0  0  0  0  0  0
   15.2691   -1.4110   -3.0819 C   0  0  0  0  0  0  0  0  0  0  0  0
   15.5308   -0.0237   -2.9784 C   0  0  0  0  0  0  0  0  0  0  0  0
   14.5973    0.9054   -3.4634 C   0  0  0  0  0  0  0  0  0  0  0  0
   14.8458    2.3373   -3.4160 C   0  0  0  0  0  0  0  0  0  0  0  0
   13.7004    3.4222   -2.6865 S   0  0  0  0  0  0  0  0  0  0  0  0
   14.6688    4.8109   -3.0474 C   0  0  0  0  0  0  0  0  0  0  0  0
   14.1985    6.1794   -2.6972 C   0  0  0  0  0  0  0  0  0  0  0  0
   13.0317    6.6031   -3.5916 C   0  0  0  0  0  0  0  0  0  0  0  0
   15.8051    4.4392   -3.7013 C   0  0  0  0  0  0  0  0  0  0  0  0
   15.9121    3.0366   -3.9069 C   0  0  0  0  0  0  0  0  0  0  0  0
   17.2194    2.3237   -4.7608 Cl  0  0  0  0  0  0  0  0  0  0  0  0
   17.0113    5.5378   -4.2347 Cl  0  0  0  0  0  0  0  0  0  0  0  0
   13.4153    0.3976   -3.9863 C   0  0  0  0  0  0  0  0  0  0  0  0
   12.0983    1.3400   -4.6234 S   0  0  0  0  0  0  0  0  0  0  0  0
   16.7795    0.2281   -2.3381 C   0  0  0  0  0  0  0  0  0  0  0  0
   17.4359   -0.9026   -2.0094 C   0  0  0  0  0  0  0  0  0  0  0  0
   16.5892   -2.3484   -2.4412 S   0  0  0  0  0  0  0  0  0  0  0  0
   -5.9122   -4.8580   14.9246 H   0  0  0  0  0  0  0  0  0  0  0  0
   -6.9958   -2.4952   14.7999 H   0  0  0  0  0  0  0  0  0  0  0  0
   -8.6919    3.6462   13.9238 H   0  0  0  0  0  0  0  0  0  0  0  0
   -9.5319    3.1481   15.4054 H   0  0  0  0  0  0  0  0  0  0  0  0
   -6.5024    3.0840   14.9778 H   0  0  0  0  0  0  0  0  0  0  0  0
   -7.3373    2.6007   16.4579 H   0  0  0  0  0  0  0  0  0  0  0  0
   -7.3799    4.2860   15.9313 H   0  0  0  0  0  0  0  0  0  0  0  0
   -3.8001   -7.7116    8.1359 H   0  0  0  0  0  0  0  0  0  0  0  0
   -5.0616   -8.3071    7.0389 H   0  0  0  0  0  0  0  0  0  0  0  0
   -3.1311   -7.4131    5.7569 H   0  0  0  0  0  0  0  0  0  0  0  0
   -4.5749   -6.4372    5.4649 H   0  0  0  0  0  0  0  0  0  0  0  0
   -3.3135   -5.8449    6.5507 H   0  0  0  0  0  0  0  0  0  0  0  0
   -7.4786   -2.6673    7.6850 H   0  0  0  0  0  0  0  0  0  0  0  0
   -9.7168    1.8080    8.7762 H   0  0  0  0  0  0  0  0  0  0  0  0
  -11.9137    4.3374    7.9077 H   0  0  0  0  0  0  0  0  0  0  0  0
  -10.7642    3.8805    9.1803 H   0  0  0  0  0  0  0  0  0  0  0  0
  -10.3515    5.1287    7.9885 H   0  0  0  0  0  0  0  0  0  0  0  0
  -11.6035    4.1246    3.5363 H   0  0  0  0  0  0  0  0  0  0  0  0
  -11.4963    5.8291    4.0448 H   0  0  0  0  0  0  0  0  0  0  0  0
  -10.0122    4.9282    3.6416 H   0  0  0  0  0  0  0  0  0  0  0  0
   -9.8989    2.5983    3.8786 H   0  0  0  0  0  0  0  0  0  0  0  0
   -8.3832    2.1708    2.5536 H   0  0  0  0  0  0  0  0  0  0  0  0
  -10.5522    5.9840    0.9639 H   0  0  0  0  0  0  0  0  0  0  0  0
   -9.3676    7.1163    0.2816 H   0  0  0  0  0  0  0  0  0  0  0  0
  -10.0776    6.4623   -2.0187 H   0  0  0  0  0  0  0  0  0  0  0  0
  -11.2494    5.3285   -1.3395 H   0  0  0  0  0  0  0  0  0  0  0  0
  -11.4493    7.0660   -1.0836 H   0  0  0  0  0  0  0  0  0  0  0  0
   -7.9782   -6.8319    0.8900 H   0  0  0  0  0  0  0  0  0  0  0  0
   -6.3336   -7.3700    0.4942 H   0  0  0  0  0  0  0  0  0  0  0  0
   -6.8800   -7.8274    2.8841 H   0  0  0  0  0  0  0  0  0  0  0  0
   -7.1865   -6.1081    3.1493 H   0  0  0  0  0  0  0  0  0  0  0  0
   -5.5572   -6.6640    2.7519 H   0  0  0  0  0  0  0  0  0  0  0  0
   -5.6790   -2.1000   -2.4498 H   0  0  0  0  0  0  0  0  0  0  0  0
   -4.2646    1.9101   -4.6290 H   0  0  0  0  0  0  0  0  0  0  0  0
   -4.2209    5.9332   -8.0032 H   0  0  0  0  0  0  0  0  0  0  0  0
   -3.1623    7.0325   -7.0979 H   0  0  0  0  0  0  0  0  0  0  0  0
   -4.4870    6.5925   -5.0284 H   0  0  0  0  0  0  0  0  0  0  0  0
   -5.5193    7.2181   -6.3180 H   0  0  0  0  0  0  0  0  0  0  0  0
   -5.5367    5.4940   -5.9292 H   0  0  0  0  0  0  0  0  0  0  0  0
   -1.0250   -7.4896   -4.7851 H   0  0  0  0  0  0  0  0  0  0  0  0
   -0.5646   -6.6001   -3.3261 H   0  0  0  0  0  0  0  0  0  0  0  0
   -2.9457   -6.0243   -2.9011 H   0  0  0  0  0  0  0  0  0  0  0  0
   -2.7212   -7.7744   -2.9804 H   0  0  0  0  0  0  0  0  0  0  0  0
   -3.4280   -6.9105   -4.3498 H   0  0  0  0  0  0  0  0  0  0  0  0
    1.2389   -2.1413   -6.5199 H   0  0  0  0  0  0  0  0  0  0  0  0
    3.6213    1.9559   -6.8970 H   0  0  0  0  0  0  0  0  0  0  0  0
    6.5326    6.6484   -4.6765 H   0  0  0  0  0  0  0  0  0  0  0  0
    6.1160    7.3599   -6.2470 H   0  0  0  0  0  0  0  0  0  0  0  0
    8.4590    6.9947   -7.0251 H   0  0  0  0  0  0  0  0  0  0  0  0
    8.4328    7.9768   -5.5572 H   0  0  0  0  0  0  0  0  0  0  0  0
    8.8674    6.2652   -5.4693 H   0  0  0  0  0  0  0  0  0  0  0  0
    6.7732   -7.5194   -6.2709 H   0  0  0  0  0  0  0  0  0  0  0  0
    5.7016   -6.8455   -5.0281 H   0  0  0  0  0  0  0  0  0  0  0  0
    4.3897   -8.1043   -6.7164 H   0  0  0  0  0  0  0  0  0  0  0  0
    3.9710   -6.3878   -6.7649 H   0  0  0  0  0  0  0  0  0  0  0  0
    5.0281   -7.0747   -8.0016 H   0  0  0  0  0  0  0  0  0  0  0  0
    9.2922   -2.1086   -5.5832 H   0  0  0  0  0  0  0  0  0  0  0  0
   11.4343   -2.2277   -4.6767 H   0  0  0  0  0  0  0  0  0  0  0  0
   13.1045   -7.0801   -1.6911 H   0  0  0  0  0  0  0  0  0  0  0  0
   12.7839   -7.7712   -3.2938 H   0  0  0  0  0  0  0  0  0  0  0  0
   15.5573   -7.1869   -2.1395 H   0  0  0  0  0  0  0  0  0  0  0  0
   15.2363   -7.8909   -3.7275 H   0  0  0  0  0  0  0  0  0  0  0  0
   14.8135   -8.7858   -2.2644 H   0  0  0  0  0  0  0  0  0  0  0  0
   15.0307    6.8749   -2.8167 H   0  0  0  0  0  0  0  0  0  0  0  0
   13.8768    6.1970   -1.6536 H   0  0  0  0  0  0  0  0  0  0  0  0
   12.6977    7.6014   -3.3219 H   0  0  0  0  0  0  0  0  0  0  0  0
   12.2001    5.9118   -3.4771 H   0  0  0  0  0  0  0  0  0  0  0  0
   13.3376    6.6078   -4.6348 H   0  0  0  0  0  0  0  0  0  0  0  0
   17.1496    1.2149   -2.1304 H   0  0  0  0  0  0  0  0  0  0  0  0
   18.3879   -0.9939   -1.5241 H   0  0  0  0  0  0  0  0  0  0  0  0
  1  2  2  0  0  0  0
  2  3  1  0  0  0  0
  3  4  2  0  0  0  0
  4  5  1  0  0  0  0
  5  6  1  0  0  0  0
  6  7  1  0  0  0  0
  7  8  1  0  0  0  0
  8  9  1  0  0  0  0
  7 10  2  0  0  0  0
 10 11  1  0  0  0  0
 10 12  1  0  0  0  0
 12 13  1  0  0  0  0
  4 14  1  0  0  0  0
 14 15  2  0  0  0  0
 15 16  1  0  0  0  0
 16 17  1  0  0  0  0
 17 18  1  0  0  0  0
 18 19  1  0  0  0  0
 19 20  1  0  0  0  0
 20 21  1  0  0  0  0
 19 22  2  0  0  0  0
 22 23  1  0  0  0  0
 23 24  1  0  0  0  0
 22 25  1  0  0  0  0
 16 26  2  0  0  0  0
 26 27  1  0  0  0  0
 15 28  1  0  0  0  0
 28 29  2  0  0  0  0
 29 30  1  0  0  0  0
 29 31  1  0  0  0  0
 31 32  1  0  0  0  0
 32 33  1  0  0  0  0
 33 34  2  0  0  0  0
 34 35  1  0  0  0  0
 35 36  1  0  0  0  0
 36 37  2  0  0  0  0
 37 38  1  0  0  0  0
 37 39  1  0  0  0  0
 39 40  1  0  0  0  0
 40 41  1  0  0  0  0
 39 42  2  0  0  0  0
 33 43  1  0  0  0  0
 43 44  2  0  0  0  0
 44 45  1  0  0  0  0
 45 46  2  0  0  0  0
 46 47  1  0  0  0  0
 47 48  1  0  0  0  0
 48 49  1  0  0  0  0
 49 50  1  0  0  0  0
 50 51  1  0  0  0  0
 49 52  2  0  0  0  0
 52 53  1  0  0  0  0
 52 54  1  0  0  0  0
 54 55  1  0  0  0  0
 46 56  1  0  0  0  0
 56 57  2  0  0  0  0
 57 58  1  0  0  0  0
 58 59  1  0  0  0  0
 59 60  1  0  0  0  0
 60 61  1  0  0  0  0
 61 62  1  0  0  0  0
 62 63  1  0  0  0  0
 61 64  2  0  0  0  0
 64 65  1  0  0  0  0
 65 66  1  0  0  0  0
 64 67  1  0  0  0  0
 58 68  2  0  0  0  0
 68 69  1  0  0  0  0
 57 70  1  0  0  0  0
 70 71  2  0  0  0  0
 71 72  1  0  0  0  0
 71 73  1  0  0  0  0
 73 74  2  0  0  0  0
 74 75  1  0  0  0  0
 75 76  2  0  0  0  0
 76 77  1  0  0  0  0
 77 78  1  0  0  0  0
 78 79  1  0  0  0  0
 79 80  1  0  0  0  0
 80 81  1  0  0  0  0
 79 82  2  0  0  0  0
 82 83  1  0  0  0  0
 82 84  1  0  0  0  0
 84 85  1  0  0  0  0
 76 86  1  0  0  0  0
 86 87  2  0  0  0  0
 87 88  1  0  0  0  0
 88 89  1  0  0  0  0
 89 90  1  0  0  0  0
 90 91  1  0  0  0  0
 91 92  1  0  0  0  0
 92 93  1  0  0  0  0
 91 94  2  0  0  0  0
 94 95  1  0  0  0  0
 95 96  1  0  0  0  0
 94 97  1  0  0  0  0
 88 98  2  0  0  0  0
 98 99  1  0  0  0  0
 87100  1  0  0  0  0
100101  2  0  0  0  0
101102  1  0  0  0  0
101103  1  0  0  0  0
103104  2  0  0  0  0
104105  1  0  0  0  0
105106  2  0  0  0  0
106107  1  0  0  0  0
107108  1  0  0  0  0
108109  1  0  0  0  0
109110  1  0  0  0  0
110111  1  0  0  0  0
109112  2  0  0  0  0
112113  1  0  0  0  0
112114  1  0  0  0  0
114115  1  0  0  0  0
106116  1  0  0  0  0
116117  2  0  0  0  0
117118  1  0  0  0  0
118119  1  0  0  0  0
119120  1  0  0  0  0
120121  1  0  0  0  0
121122  1  0  0  0  0
122123  1  0  0  0  0
121124  2  0  0  0  0
124125  1  0  0  0  0
125126  1  0  0  0  0
124127  1  0  0  0  0
118128  2  0  0  0  0
128129  1  0  0  0  0
117130  1  0  0  0  0
130131  2  0  0  0  0
131132  1  0  0  0  0
131133  1  0  0  0  0
133134  2  0  0  0  0
134135  1  0  0  0  0
135136  2  0  0  0  0
136137  1  0  0  0  0
137138  1  0  0  0  0
138139  1  0  0  0  0
139140  1  0  0  0  0
140141  1  0  0  0  0
139142  2  0  0  0  0
142143  1  0  0  0  0
142144  1  0  0  0  0
144145  1  0  0  0  0
136146  1  0  0  0  0
146147  2  0  0  0  0
147148  1  0  0  0  0
148149  1  0  0  0  0
149150  1  0  0  0  0
150151  1  0  0  0  0
151152  1  0  0  0  0
152153  1  0  0  0  0
151154  2  0  0  0  0
154155  1  0  0  0  0
155156  1  0  0  0  0
154157  1  0  0  0  0
148158  2  0  0  0  0
158159  1  0  0  0  0
147160  1  0  0  0  0
160161  2  0  0  0  0
161162  1  0  0  0  0
 27  1  1  0  0  0  0
 35 31  2  0  0  0  0
 69 43  1  0  0  0  0
 99 73  1  0  0  0  0
129103  1  0  0  0  0
159133  1  0  0  0  0
 26  3  1  0  0  0  0
 42 34  1  0  0  0  0
 68 45  1  0  0  0  0
 98 75  1  0  0  0  0
128105  1  0  0  0  0
158135  1  0  0  0  0
 12  5  2  0  0  0  0
 30 14  1  0  0  0  0
 54 47  2  0  0  0  0
 72 56  1  0  0  0  0
 84 77  2  0  0  0  0
102 86  1  0  0  0  0
114107  2  0  0  0  0
132116  1  0  0  0  0
144137  2  0  0  0  0
162146  1  0  0  0  0
 23 17  2  0  0  0  0
 65 59  2  0  0  0  0
 95 89  2  0  0  0  0
125119  2  0  0  0  0
155149  2  0  0  0  0
  1163  1  0  0  0  0
  2164  1  0  0  0  0
  8165  1  0  0  0  0
  8166  1  0  0  0  0
  9167  1  0  0  0  0
  9168  1  0  0  0  0
  9169  1  0  0  0  0
 20170  1  0  0  0  0
 20171  1  0  0  0  0
 21172  1  0  0  0  0
 21173  1  0  0  0  0
 21174  1  0  0  0  0
 28175  1  0  0  0  0
 36176  1  0  0  0  0
 38177  1  0  0  0  0
 38178  1  0  0  0  0
 38179  1  0  0  0  0
 41180  1  0  0  0  0
 41181  1  0  0  0  0
 41182  1  0  0  0  0
 42183  1  0  0  0  0
 44184  1  0  0  0  0
 50185  1  0  0  0  0
 50186  1  0  0  0  0
 51187  1  0  0  0  0
 51188  1  0  0  0  0
 51189  1  0  0  0  0
 62190  1  0  0  0  0
 62191  1  0  0  0  0
 63192  1  0  0  0  0
 63193  1  0  0  0  0
 63194  1  0  0  0  0
 70195  1  0  0  0  0
 74196  1  0  0  0  0
 80197  1  0  0  0  0
 80198  1  0  0  0  0
 81199  1  0  0  0  0
 81200  1  0  0  0  0
 81201  1  0  0  0  0
 92202  1  0  0  0  0
 92203  1  0  0  0  0
 93204  1  0  0  0  0
 93205  1  0  0  0  0
 93206  1  0  0  0  0
100207  1  0  0  0  0
104208  1  0  0  0  0
110209  1  0  0  0  0
110210  1  0  0  0  0
111211  1  0  0  0  0
111212  1  0  0  0  0
111213  1  0  0  0  0
122214  1  0  0  0  0
122215  1  0  0  0  0
123216  1  0  0  0  0
123217  1  0  0  0  0
123218  1  0  0  0  0
130219  1  0  0  0  0
134220  1  0  0  0  0
140221  1  0  0  0  0
140222  1  0  0  0  0
141223  1  0  0  0  0
141224  1  0  0  0  0
141225  1  0  0  0  0
152226  1  0  0  0  0
152227  1  0  0  0  0
153228  1  0  0  0  0
153229  1  0  0  0  0
153230  1  0  0  0  0
160231  1  0  0  0  0
161232  1  0  0  0  0
M  END
