90

C          4.50580        3.27240        6.28880
O          3.99050        2.05120        6.56240
C          3.24890        1.68100        5.51360
C          3.27170        2.66970        4.52690
C          4.10390        3.70980        5.05620
O          4.46630        4.89580        4.52570
C          3.95420        5.21660        3.25060
C          2.60980        2.59370        3.30090
N          2.06910        2.53080        2.28810
C          2.55960        0.43990        5.49420
O          1.80090        0.14160        4.40700
C          1.22310       -1.06620        4.59290
C          1.62620       -1.58110        5.83800
C          2.48650       -0.59680        6.41400
O          3.14350       -0.56220        7.58190
C          3.01620       -1.65630        8.46450
C          1.32900       -2.82930        6.38700
N          1.11660       -3.85540        6.86190
C          0.42790       -1.49630        3.50960
S          0.62170       -0.54360        2.06700
C         -0.54160       -1.46700        1.17010
C         -1.08640       -2.48000        1.99780
C         -0.53830       -2.49470        3.31530
C         -1.01780       -3.42860        4.25160
C         -1.97670       -4.34140        3.91340
C         -2.48600       -5.34820        4.89160
C         -2.51490       -4.33050        2.59490
O         -3.46710       -5.27150        2.35450
C         -4.03490       -5.34080        1.06960
C         -2.08380       -3.41380        1.66800
C         -0.79430       -1.17420       -0.18400
S         -1.81760       -2.20550       -1.15590
C         -1.56690       -1.28190       -2.58600
C         -0.71660       -0.19480       -2.34220
C         -0.28490       -0.12240       -0.98430
C          0.53250        0.96130       -0.61800
C          0.95690        1.89550       -1.53180
C          1.76710        3.05960       -1.04870
C          0.57380        1.76090       -2.89500
O          0.93630        2.64740       -3.88590
C          2.31250        2.92550       -4.05930
C         -0.26870        0.74730       -3.28040
C         -2.19090       -1.66980       -3.78970
O         -1.99580       -0.97250       -4.93690
C         -2.70640       -1.55880       -5.91210
C         -3.39130       -2.66970       -5.41350
C         -3.05460       -2.73790       -4.03410
O         -3.42530       -3.59250       -3.06200
C         -4.31020       -4.63480       -3.41340
C         -4.22160       -3.50430       -6.17050
N         -4.90050       -4.18650       -6.79560
C         -2.65010       -0.97660       -7.20680
O         -3.30980       -1.50580       -8.26670
C         -3.06170       -0.73490       -9.32120
C         -2.23580        0.31880       -8.98980
C         -1.95850        0.16780       -7.59570
O         -1.22150        0.89210       -6.74730
C         -0.59770        2.06840       -7.22160
C         -1.78290        1.31040       -9.87390
N         -1.41520        2.11460      -10.60370
H          5.13260        3.72810        7.02580
H          2.86080        5.25120        3.25500
H          4.28540        4.49940        2.49390
H          4.34870        6.20330        3.01490
H          3.60800       -1.39310        9.33930
H          1.97550       -1.81410        8.75960
H          3.40670       -2.57590        8.02090
H         -0.62180       -3.42620        5.25130
H         -1.95340       -5.26980        5.83470
H         -2.36170       -6.35180        4.48890
H         -3.55100       -5.19820        5.06270
H         -4.73750       -6.17230        1.10440
H         -4.57250       -4.42110        0.81680
H         -3.27540       -5.53560        0.30540
H         -2.51840       -3.39870        0.68640
H          0.82430        1.10370        0.40850
H          1.39960        3.98630       -1.48590
H          2.81770        2.94490       -1.31430
H          1.70380        3.12670        0.03370
H          2.46570        3.06500       -5.13120
H          2.60830        3.84200       -3.54200
H          2.93570        2.09600       -3.71840
H         -0.58300        0.68420       -4.30830
H         -5.25220       -4.24250       -3.80560
H         -4.49770       -5.18610       -2.49370
H         -3.86480       -5.30010       -4.15780
H         -3.50540       -1.00300      -10.25950
H          0.14360        1.84120       -7.99280
H         -1.32990        2.77270       -7.62540
H         -0.10950        2.50370       -6.35040
