242

C         -4.54880       -1.21790       12.34150
C         -5.48490       -0.60370       11.59100
C         -5.28100       -0.78210       10.18960
C         -6.05140       -0.28490        9.12780
C         -7.27440        0.49340        9.36360
C         -7.47430        1.72480        8.74250
C         -8.61750        2.45560        8.98490
C         -9.61240        1.98570        9.83990
S        -11.05170        2.99420       10.04230
C        -11.44570        2.84980       11.82500
C        -10.28810        3.28830       12.69930
C         -9.41650        0.73740       10.42270
F        -10.35620        0.19100       11.22690
C         -8.26610        0.00570       10.20850
C         -5.60080       -0.56540        7.84570
C         -4.44640       -1.34490        7.58670
C         -3.68410       -1.85580        8.64910
C         -2.48330       -2.66590        8.40480
C         -1.25950       -2.32570        8.97810
C         -0.12660       -3.06000        8.70050
C         -0.16860       -4.17440        7.86460
S          1.34960       -5.03650        7.58370
C          1.26390       -5.54320        5.82500
C          1.01510       -4.36790        4.90380
C         -1.40910       -4.53720        7.34710
C         -2.54470       -3.78990        7.58760
F         -1.54610       -5.64330        6.58490
C         -4.11630       -1.54410        9.92930
S         -3.34800       -2.04910       11.41260
C         -4.19420       -1.46870        6.19740
C         -5.11630       -0.83750        5.41430
S         -6.36120       -0.05190        6.36190
C         -5.10800       -0.75000        3.98760
C         -4.23920       -1.37230        3.14010
C         -4.44840       -1.05160        1.77720
C         -3.69020       -1.46470        0.67400
C         -2.49640       -2.31080        0.80290
C         -1.28680       -1.84940        0.28970
C         -0.13310       -2.59800        0.38970
C         -0.14970       -3.83970        1.01100
S          1.25290       -4.90070        1.16570
C          2.66700       -3.80510        0.82760
C          2.91750       -2.80970        1.94180
C         -1.36740       -4.29480        1.51610
F         -1.41490       -5.50380        2.11340
C         -2.52670       -3.55450        1.42660
C         -4.04830       -0.93900       -0.55620
C         -5.07320        0.02280       -0.73690
C         -5.83220        0.43640        0.37220
C         -6.87740        1.46020        0.25400
C         -6.61860        2.68270       -0.36580
C         -7.60300        3.64040       -0.46580
C         -8.88290        3.42850        0.04930
S        -10.03130        4.75600       -0.12330
C        -11.68210        3.94940       -0.12930
C        -12.68290        4.89750       -0.76010
C         -9.11690        2.21630        0.69140
C         -8.14230        1.24330        0.78800
F        -10.31660        1.94260        1.25210
C         -5.51610       -0.13600        1.59820
S         -6.25210        0.26370        3.13070
C         -5.14430        0.45940       -2.08990
C         -4.24120       -0.15370       -2.90360
S         -3.26820       -1.34300       -2.05370
C         -3.80530        0.12180       -4.23920
C         -3.07120       -0.73490       -5.00230
C         -2.39200       -0.10480       -6.07020
C         -1.38430       -0.66990       -6.86550
C         -1.06790       -2.10420       -6.78850
C          0.20140       -2.51950       -6.39090
C          0.51610       -3.85970       -6.33230
C         -0.42250       -4.83150       -6.66380
S          0.06990       -6.53390       -6.58900
C         -0.51230       -7.18170       -8.19800
C          0.11910       -6.44590       -9.36280
C         -1.70190       -4.40580       -7.00290
F         -2.67280       -5.30430       -7.28010
C         -2.02830       -3.06600       -7.07610
C         -0.58880        0.21700       -7.56060
C         -0.73180        1.62920       -7.50620
C         -1.83220        2.17570       -6.82200
C         -2.09700        3.62070       -6.75380
C         -3.33550        4.11230       -7.16090
C         -3.61680        5.45990       -7.08410
C         -2.67800        6.36460       -6.59700
S         -3.11150        8.08340       -6.57060
C         -2.63150        8.58900       -4.87690
C         -3.37380        7.79320       -3.82210
C         -1.44260        5.86160       -6.20350
C         -1.15110        4.51330       -6.26310
F         -0.47760        6.68750       -5.74140
C         -2.62890        1.28920       -6.10830
S         -3.81040        1.75190       -4.90000
C          0.43450        2.29230       -7.98110
C          1.44170        1.43070       -8.32920
S          0.86600       -0.23600       -8.40570
C          2.85120        1.58000       -8.17840
S          3.62340        0.16000       -7.54080
C          4.93560        1.06080       -6.85230
C          4.87750        2.39210       -7.27700
C          3.68330        2.68960       -8.01580
C          3.45710        4.01460       -8.44240
C          4.34990        5.00400       -8.15140
C          4.13930        6.41620       -8.59100
C          5.53270        4.70000       -7.40110
O          6.34220        5.76470       -7.17330
C          7.52760        5.56580       -6.44030
C          5.78900        3.42210       -6.97650
C          5.59020        0.43550       -5.75500
C          5.01070       -0.58470       -5.04670
C          5.67000       -0.91310       -3.84770
C          5.22520       -1.81150       -2.86030
C          3.86920       -2.37620       -2.91490
C          3.58970       -3.71820       -2.67890
C          2.28870       -4.19440       -2.68310
C          1.21320       -3.34210       -2.90980
S         -0.49120       -3.78440       -2.90510
C         -0.53270       -5.43440       -2.12280
C         -0.40860       -6.56580       -3.12300
C          1.50900       -1.99850       -3.15320
F          0.49520       -1.13210       -3.37230
C          2.79560       -1.51430       -3.15580
C          6.06840       -1.98580       -1.77740
C          7.27810       -1.26570       -1.60370
C          7.68920       -0.32860       -2.57250
C          8.92300        0.44840       -2.41240
C         10.12880       -0.17710       -2.10860
C         11.29950        0.54590       -1.98510
C         11.30850        1.92420       -2.16720
S         12.72040        2.96870       -2.02360
C         14.13700        1.81840       -2.08770
C         14.31970        1.20610       -3.46340
C         10.09040        2.53920       -2.46100
C          8.91740        1.83120       -2.58450
F         10.05480        3.87730       -2.63110
C          6.86020       -0.16740       -3.67220
S          7.07420        0.97270       -4.98760
C          7.85400       -1.51250       -0.33240
C          7.14950       -2.38910        0.44640
S          5.73140       -2.99480       -0.39750
C          7.37780       -2.70530        1.81420
S          8.48860       -1.73070        2.73140
C          8.05010       -2.47800        4.20250
C          7.09360       -3.45210        4.02740
C          6.72800       -3.61380        2.65080
C          5.82490       -4.64510        2.31410
C          5.22460       -5.39650        3.27970
C          4.25950       -6.48710        2.94250
C          5.51610       -5.15010        4.66410
O          4.80150       -5.91850        5.53060
C          5.00930       -5.74540        6.91160
C          6.45740       -4.22870        5.02650
H         -4.47120       -1.23890       13.41100
H         -6.29250       -0.02600       12.00240
H         -6.71530        2.12480        8.08850
H         -8.76150        3.41510        8.51350
H        -12.30180        3.51380       11.94480
H        -11.75610        1.82970       12.03960
H        -10.58850        3.26380       13.74490
H         -9.43320        2.62660       12.57200
H         -9.98080        4.30100       12.44660
H         -8.17110       -0.96170       10.67750
H         -1.19100       -1.45930        9.61740
H          0.82380       -2.77770        9.12600
H          0.50330       -6.31260        5.71350
H          2.24610       -5.98010        5.64420
H          1.78670       -3.61010        5.02950
H          1.01860       -4.71440        3.87290
H          0.04770       -3.90980        5.10300
H         -3.48050       -4.11470        7.15890
H         -3.34020       -1.98640        5.80180
H         -3.45750       -2.03080        3.47030
H         -1.24200       -0.88350       -0.18810
H          0.77840       -2.20480       -0.02940
H          2.51610       -3.32230       -0.13630
H          3.50210       -4.49530        0.73390
H          2.04860       -2.17530        2.10530
H          3.76540       -2.18100        1.67880
H          3.15130       -3.32920        2.86730
H         -3.44480       -3.96010        1.82230
H         -5.63250        2.88720       -0.75370
H         -7.39910        4.58420       -0.94750
H        -11.95580        3.71560        0.89820
H        -11.59150        3.03080       -0.70710
H        -12.39280        5.13710       -1.78070
H        -12.74160        5.82320       -0.19210
H        -13.66700        4.43410       -0.77450
H         -8.38960        0.31580        1.28040
H         -5.83720        1.20150       -2.44370
H         -2.93570       -1.77210       -4.75140
H          0.94340       -1.78550       -6.12010
H          1.50280       -4.17740       -6.03200
H         -1.59870       -7.13150       -8.22400
H         -0.20580       -8.22750       -8.17790
H         -0.19720       -6.90090      -10.29930
H          1.20440       -6.49220       -9.30030
H         -0.18090       -5.39910       -9.36880
H         -3.03020       -2.78460       -7.36250
H         -4.07910        3.42890       -7.54150
H         -4.57630        5.83820       -7.40020
H         -2.90350        9.64360       -4.83980
H         -1.55260        8.49720       -4.77390
H         -4.44890        7.88550       -3.96130
H         -3.10860        6.73840       -3.87400
H         -3.11620        8.16530       -2.83230
H         -0.19130        4.17230       -5.90700
H          0.57350        3.35530       -7.91760
H          2.57230        4.23410       -9.02060
H          3.22140        6.51180       -9.16420
H          4.98000        6.74800       -9.19800
H          4.08980        7.07180       -7.72300
H          7.32010        5.19510       -5.43200
H          8.20190        4.87000       -6.94900
H          8.00090        6.54380       -6.37400
H          6.68010        3.17400       -6.42360
H          4.10090       -1.06210       -5.36110
H          4.40040       -4.40840       -2.50220
H          2.11880       -5.24330       -2.50260
H          0.24500       -5.46560       -1.36200
H         -1.50360       -5.46050       -1.62710
H         -0.44520       -7.52000       -2.60150
H          0.52400       -6.50690       -3.67900
H         -1.22550       -6.53040       -3.83890
H          2.95620       -0.45890       -3.31300
H         10.15610       -1.24960       -1.98740
H         12.20950        0.02180       -1.74180
H         14.98690        2.44980       -1.82870
H         14.01480        1.06740       -1.30830
H         15.19500        0.55920       -3.46760
H         13.45040        0.61740       -3.74870
H         14.46150        1.98830       -4.20530
H          8.00420        2.36400       -2.79650
H          8.74120       -1.01760        0.02100
H          8.50890       -2.15680        5.11610
H          5.62950       -4.85440        1.27440
H          4.48200       -7.37890        3.52410
H          3.24260       -6.18360        3.19010
H          4.30000       -6.72790        1.88360
H          4.32130       -6.43000        7.40500
H          6.03650       -5.99330        7.19630
H          4.77960       -4.72230        7.22460
H          6.73160       -4.05970        6.05510
