
  xtb     03052208453D
 energy: -306.997502693146 gnorm: 0.000176262311 xtb: 6.4.1 (unknown)
182199  0     0  0            999 V2000
   -4.0442    3.6825   12.4522 C   0  0  0  0  0  0  0  0  0  0  0  0
   -2.9915    2.8577   12.6239 C   0  0  0  0  0  0  0  0  0  0  0  0
   -2.6295    2.1627   11.4318 C   0  0  0  0  0  0  0  0  0  0  0  0
   -1.5906    1.2362   11.2497 C   0  0  0  0  0  0  0  0  0  0  0  0
   -0.6401    0.9184   12.3231 C   0  0  0  0  0  0  0  0  0  0  0  0
   -0.3678   -0.4002   12.6824 C   0  0  0  0  0  0  0  0  0  0  0  0
    0.5549   -0.6834   13.6657 C   0  0  0  0  0  0  0  0  0  0  0  0
    1.2416    0.3310   14.3320 C   0  0  0  0  0  0  0  0  0  0  0  0
    2.3800   -0.1548   15.5911 S   0  0  0  0  0  0  0  0  0  0  0  0
    3.6932    1.1297   15.5148 C   0  0  0  0  0  0  0  0  0  0  0  0
    4.9784    0.5496   16.0711 C   0  0  0  0  0  0  0  0  0  0  0  0
    0.9407    1.6433   13.9809 C   0  0  0  0  0  0  0  0  0  0  0  0
    1.5348    2.6856   14.6076 F   0  0  0  0  0  0  0  0  0  0  0  0
    0.0283    1.9403   12.9890 C   0  0  0  0  0  0  0  0  0  0  0  0
   -1.4852    0.6601    9.9938 C   0  0  0  0  0  0  0  0  0  0  0  0
   -2.3299    1.0080    8.9121 C   0  0  0  0  0  0  0  0  0  0  0  0
   -3.3511    1.9573    9.0839 C   0  0  0  0  0  0  0  0  0  0  0  0
   -4.2082    2.3380    7.9557 C   0  0  0  0  0  0  0  0  0  0  0  0
   -3.6498    2.7074    6.7337 C   0  0  0  0  0  0  0  0  0  0  0  0
   -4.4436    3.0055    5.6444 C   0  0  0  0  0  0  0  0  0  0  0  0
   -5.8297    2.9339    5.7340 C   0  0  0  0  0  0  0  0  0  0  0  0
   -6.9413    3.2498    4.4049 S   0  0  0  0  0  0  0  0  0  0  0  0
   -5.9175    2.9942    2.9150 C   0  0  0  0  0  0  0  0  0  0  0  0
   -5.4637    1.5555    2.7644 C   0  0  0  0  0  0  0  0  0  0  0  0
   -6.3765    2.6061    6.9757 C   0  0  0  0  0  0  0  0  0  0  0  0
   -5.5961    2.3136    8.0719 C   0  0  0  0  0  0  0  0  0  0  0  0
   -7.7168    2.5511    7.1081 F   0  0  0  0  0  0  0  0  0  0  0  0
   -3.4893    2.4931   10.3560 C   0  0  0  0  0  0  0  0  0  0  0  0
   -4.6771    3.6757   10.8417 S   0  0  0  0  0  0  0  0  0  0  0  0
   -2.0061    0.2877    7.7395 C   0  0  0  0  0  0  0  0  0  0  0  0
   -0.9452   -0.5645    7.8769 C   0  0  0  0  0  0  0  0  0  0  0  0
   -0.2976   -0.5261    9.5090 S   0  0  0  0  0  0  0  0  0  0  0  0
   -0.3912   -1.3462    6.8287 C   0  0  0  0  0  0  0  0  0  0  0  0
   -0.8645   -0.9550    5.2068 S   0  0  0  0  0  0  0  0  0  0  0  0
    0.1424   -2.1887    4.5127 C   0  0  0  0  0  0  0  0  0  0  0  0
    0.8094   -2.8951    5.5185 C   0  0  0  0  0  0  0  0  0  0  0  0
    0.5144   -2.4081    6.8315 C   0  0  0  0  0  0  0  0  0  0  0  0
    1.1222   -3.0268    7.9449 C   0  0  0  0  0  0  0  0  0  0  0  0
    1.9841   -4.0697    7.7814 C   0  0  0  0  0  0  0  0  0  0  0  0
    2.6407   -4.7440    8.9417 C   0  0  0  0  0  0  0  0  0  0  0  0
    2.2783   -4.5476    6.4642 C   0  0  0  0  0  0  0  0  0  0  0  0
    3.1489   -5.5894    6.4235 O   0  0  0  0  0  0  0  0  0  0  0  0
    3.4956   -6.1279    5.1707 C   0  0  0  0  0  0  0  0  0  0  0  0
    1.7022   -3.9738    5.3621 C   0  0  0  0  0  0  0  0  0  0  0  0
    0.1932   -2.2752    3.0989 C   0  0  0  0  0  0  0  0  0  0  0  0
   -0.4192   -1.4076    2.2320 C   0  0  0  0  0  0  0  0  0  0  0  0
   -0.1641   -1.6693    0.8691 C   0  0  0  0  0  0  0  0  0  0  0  0
   -0.5992   -0.9387   -0.2510 C   0  0  0  0  0  0  0  0  0  0  0  0
   -1.4024    0.2811   -0.1048 C   0  0  0  0  0  0  0  0  0  0  0  0
   -0.9870    1.3195    0.7276 C   0  0  0  0  0  0  0  0  0  0  0  0
   -1.7278    2.4771    0.8283 C   0  0  0  0  0  0  0  0  0  0  0  0
   -2.9185    2.6397    0.1228 C   0  0  0  0  0  0  0  0  0  0  0  0
   -3.7979    4.1581    0.3587 S   0  0  0  0  0  0  0  0  0  0  0  0
   -4.4788    4.5525   -1.2930 C   0  0  0  0  0  0  0  0  0  0  0  0
   -3.3992    4.6305   -2.3530 C   0  0  0  0  0  0  0  0  0  0  0  0
   -3.3403    1.5798   -0.6736 C   0  0  0  0  0  0  0  0  0  0  0  0
   -4.5157    1.6397   -1.3393 F   0  0  0  0  0  0  0  0  0  0  0  0
   -2.5922    0.4280   -0.8090 C   0  0  0  0  0  0  0  0  0  0  0  0
   -0.2080   -1.4092   -1.4924 C   0  0  0  0  0  0  0  0  0  0  0  0
    0.6045   -2.5578   -1.6682 C   0  0  0  0  0  0  0  0  0  0  0  0
    1.0439   -3.2854   -0.5467 C   0  0  0  0  0  0  0  0  0  0  0  0
    1.8886   -4.4766   -0.6966 C   0  0  0  0  0  0  0  0  0  0  0  0
    1.5336   -5.6846   -0.0992 C   0  0  0  0  0  0  0  0  0  0  0  0
    2.2981   -6.8152   -0.2936 C   0  0  0  0  0  0  0  0  0  0  0  0
    3.4526   -6.7833   -1.0723 C   0  0  0  0  0  0  0  0  0  0  0  0
    4.3579   -8.2923   -1.2634 S   0  0  0  0  0  0  0  0  0  0  0  0
    4.8357   -8.2809   -3.0323 C   0  0  0  0  0  0  0  0  0  0  0  0
    3.6382   -8.1266   -3.9485 C   0  0  0  0  0  0  0  0  0  0  0  0
    3.8276   -5.5571   -1.6124 C   0  0  0  0  0  0  0  0  0  0  0  0
    3.0579   -4.4238   -1.4487 C   0  0  0  0  0  0  0  0  0  0  0  0
    4.9691   -5.4359   -2.3270 F   0  0  0  0  0  0  0  0  0  0  0  0
    0.6400   -2.8222    0.6928 C   0  0  0  0  0  0  0  0  0  0  0  0
    1.0960   -3.5085    2.2318 S   0  0  0  0  0  0  0  0  0  0  0  0
    0.8767   -2.8125   -3.0321 C   0  0  0  0  0  0  0  0  0  0  0  0
    0.3374   -1.8918   -3.8887 C   0  0  0  0  0  0  0  0  0  0  0  0
   -0.5682   -0.6558   -3.0233 S   0  0  0  0  0  0  0  0  0  0  0  0
    0.4700   -1.7959   -5.2979 C   0  0  0  0  0  0  0  0  0  0  0  0
    0.2961   -0.2461   -6.0572 S   0  0  0  0  0  0  0  0  0  0  0  0
    0.7241   -0.8630   -7.6212 C   0  0  0  0  0  0  0  0  0  0  0  0
    0.9089   -2.2514   -7.5652 C   0  0  0  0  0  0  0  0  0  0  0  0
    0.7820   -2.7785   -6.2445 C   0  0  0  0  0  0  0  0  0  0  0  0
    0.9050   -4.1720   -6.0564 C   0  0  0  0  0  0  0  0  0  0  0  0
    1.1536   -5.0044   -7.1083 C   0  0  0  0  0  0  0  0  0  0  0  0
    1.2962   -6.4822   -6.9325 C   0  0  0  0  0  0  0  0  0  0  0  0
    1.2494   -4.4685   -8.4301 C   0  0  0  0  0  0  0  0  0  0  0  0
    1.4658   -5.3951   -9.4048 O   0  0  0  0  0  0  0  0  0  0  0  0
    1.5765   -4.9517  -10.7344 C   0  0  0  0  0  0  0  0  0  0  0  0
    1.1049   -3.1253   -8.6539 C   0  0  0  0  0  0  0  0  0  0  0  0
    0.8354    0.0230   -8.7185 C   0  0  0  0  0  0  0  0  0  0  0  0
   -0.1982    1.4136   -8.8108 S   0  0  0  0  0  0  0  0  0  0  0  0
    0.4566    1.9388  -10.3367 C   0  0  0  0  0  0  0  0  0  0  0  0
    1.4670    1.0498  -10.7475 C   0  0  0  0  0  0  0  0  0  0  0  0
    1.7032   -0.0054   -9.8153 C   0  0  0  0  0  0  0  0  0  0  0  0
    2.7982   -0.8731  -10.0161 C   0  0  0  0  0  0  0  0  0  0  0  0
    3.5607   -0.7909  -11.1428 C   0  0  0  0  0  0  0  0  0  0  0  0
    4.7283   -1.6944  -11.3803 C   0  0  0  0  0  0  0  0  0  0  0  0
    3.2387    0.1849  -12.1354 C   0  0  0  0  0  0  0  0  0  0  0  0
    4.0248    0.1406  -13.2465 O   0  0  0  0  0  0  0  0  0  0  0  0
    3.8102    1.0912  -14.2598 C   0  0  0  0  0  0  0  0  0  0  0  0
    2.2304    1.0903  -11.9324 C   0  0  0  0  0  0  0  0  0  0  0  0
    0.0150    3.1455  -10.9293 C   0  0  0  0  0  0  0  0  0  0  0  0
    0.9431    3.9154  -12.1904 S   0  0  0  0  0  0  0  0  0  0  0  0
   -0.1080    5.2568  -12.2775 C   0  0  0  0  0  0  0  0  0  0  0  0
   -1.1494    5.1512  -11.3857 C   0  0  0  0  0  0  0  0  0  0  0  0
   -1.0940    3.9462  -10.6112 C   0  0  0  0  0  0  0  0  0  0  0  0
   -2.1296    3.7112   -9.6827 C   0  0  0  0  0  0  0  0  0  0  0  0
   -3.1338    4.6163   -9.4994 C   0  0  0  0  0  0  0  0  0  0  0  0
   -4.2329    4.3813   -8.5139 C   0  0  0  0  0  0  0  0  0  0  0  0
   -3.1596    5.8296  -10.2609 C   0  0  0  0  0  0  0  0  0  0  0  0
   -4.2086    6.6508   -9.9753 O   0  0  0  0  0  0  0  0  0  0  0  0
   -4.3160    7.8633  -10.6766 C   0  0  0  0  0  0  0  0  0  0  0  0
   -2.1943    6.0861  -11.1915 C   0  0  0  0  0  0  0  0  0  0  0  0
   -4.5147    4.3109   13.1830 H   0  0  0  0  0  0  0  0  0  0  0  0
   -2.4873    2.7218   13.5634 H   0  0  0  0  0  0  0  0  0  0  0  0
   -0.8907   -1.2068   12.1923 H   0  0  0  0  0  0  0  0  0  0  0  0
    0.7651   -1.7054   13.9400 H   0  0  0  0  0  0  0  0  0  0  0  0
    3.8081    1.4096   14.4687 H   0  0  0  0  0  0  0  0  0  0  0  0
    3.3671    1.9918   16.0947 H   0  0  0  0  0  0  0  0  0  0  0  0
    5.7676    1.2971   16.0263 H   0  0  0  0  0  0  0  0  0  0  0  0
    5.2859   -0.3203   15.4951 H   0  0  0  0  0  0  0  0  0  0  0  0
    4.8432    0.2468   17.1070 H   0  0  0  0  0  0  0  0  0  0  0  0
   -0.1453    2.9752   12.7365 H   0  0  0  0  0  0  0  0  0  0  0  0
   -2.5766    2.7808    6.6400 H   0  0  0  0  0  0  0  0  0  0  0  0
   -3.9745    3.2983    4.7187 H   0  0  0  0  0  0  0  0  0  0  0  0
   -6.5837    3.2762    2.1001 H   0  0  0  0  0  0  0  0  0  0  0  0
   -5.0823    3.6925    2.9305 H   0  0  0  0  0  0  0  0  0  0  0  0
   -4.9095    1.4409    1.8352 H   0  0  0  0  0  0  0  0  0  0  0  0
   -6.3227    0.8890    2.7427 H   0  0  0  0  0  0  0  0  0  0  0  0
   -4.8175    1.2588    3.5882 H   0  0  0  0  0  0  0  0  0  0  0  0
   -6.0750    2.0370    8.9976 H   0  0  0  0  0  0  0  0  0  0  0  0
   -2.5552    0.3759    6.8192 H   0  0  0  0  0  0  0  0  0  0  0  0
    0.8970   -2.6681    8.9369 H   0  0  0  0  0  0  0  0  0  0  0  0
    2.3410   -4.2812    9.8777 H   0  0  0  0  0  0  0  0  0  0  0  0
    3.7233   -4.6869    8.8416 H   0  0  0  0  0  0  0  0  0  0  0  0
    2.3739   -5.7996    8.9591 H   0  0  0  0  0  0  0  0  0  0  0  0
    4.1957   -6.9348    5.3804 H   0  0  0  0  0  0  0  0  0  0  0  0
    3.9807   -5.3827    4.5326 H   0  0  0  0  0  0  0  0  0  0  0  0
    2.6211   -6.5314    4.6507 H   0  0  0  0  0  0  0  0  0  0  0  0
    1.9161   -4.3329    4.3706 H   0  0  0  0  0  0  0  0  0  0  0  0
   -1.0368   -0.5963    2.5738 H   0  0  0  0  0  0  0  0  0  0  0  0
   -0.0582    1.2298    1.2696 H   0  0  0  0  0  0  0  0  0  0  0  0
   -1.3923    3.2877    1.4565 H   0  0  0  0  0  0  0  0  0  0  0  0
   -5.2446    3.8213   -1.5426 H   0  0  0  0  0  0  0  0  0  0  0  0
   -4.9510    5.5230   -1.1384 H   0  0  0  0  0  0  0  0  0  0  0  0
   -3.8374    4.9504   -3.2961 H   0  0  0  0  0  0  0  0  0  0  0  0
   -2.6299    5.3439   -2.0643 H   0  0  0  0  0  0  0  0  0  0  0  0
   -2.9309    3.6600   -2.5059 H   0  0  0  0  0  0  0  0  0  0  0  0
   -2.9645   -0.3595   -1.4453 H   0  0  0  0  0  0  0  0  0  0  0  0
    0.6331   -5.7431    0.4922 H   0  0  0  0  0  0  0  0  0  0  0  0
    2.0069   -7.7551    0.1488 H   0  0  0  0  0  0  0  0  0  0  0  0
    5.5749   -7.4993   -3.1941 H   0  0  0  0  0  0  0  0  0  0  0  0
    5.3107   -9.2526   -3.1669 H   0  0  0  0  0  0  0  0  0  0  0  0
    3.1730   -7.1512   -3.8178 H   0  0  0  0  0  0  0  0  0  0  0  0
    3.9568   -8.2171   -4.9850 H   0  0  0  0  0  0  0  0  0  0  0  0
    2.8961   -8.8950   -3.7415 H   0  0  0  0  0  0  0  0  0  0  0  0
    3.3964   -3.4971   -1.8862 H   0  0  0  0  0  0  0  0  0  0  0  0
    1.4925   -3.6275   -3.3606 H   0  0  0  0  0  0  0  0  0  0  0  0
    0.7687   -4.5899   -5.0721 H   0  0  0  0  0  0  0  0  0  0  0  0
    1.1637   -6.7652   -5.8917 H   0  0  0  0  0  0  0  0  0  0  0  0
    2.2809   -6.8031   -7.2690 H   0  0  0  0  0  0  0  0  0  0  0  0
    0.5612   -7.0035   -7.5433 H   0  0  0  0  0  0  0  0  0  0  0  0
    1.7855   -5.8421  -11.3255 H   0  0  0  0  0  0  0  0  0  0  0  0
    2.3954   -4.2347  -10.8533 H   0  0  0  0  0  0  0  0  0  0  0  0
    0.6453   -4.4950  -11.0850 H   0  0  0  0  0  0  0  0  0  0  0  0
    1.1087   -2.7148   -9.6492 H   0  0  0  0  0  0  0  0  0  0  0  0
    3.0462   -1.5893   -9.2481 H   0  0  0  0  0  0  0  0  0  0  0  0
    4.8672   -2.3751  -10.5443 H   0  0  0  0  0  0  0  0  0  0  0  0
    5.6340   -1.1058  -11.5162 H   0  0  0  0  0  0  0  0  0  0  0  0
    4.5777   -2.2687  -12.2934 H   0  0  0  0  0  0  0  0  0  0  0  0
    2.8079    1.0006  -14.6909 H   0  0  0  0  0  0  0  0  0  0  0  0
    4.5532    0.8767  -15.0264 H   0  0  0  0  0  0  0  0  0  0  0  0
    3.9529    2.1115  -13.8899 H   0  0  0  0  0  0  0  0  0  0  0  0
    2.0075    1.8339  -12.6759 H   0  0  0  0  0  0  0  0  0  0  0  0
    0.0939    6.0434  -12.9762 H   0  0  0  0  0  0  0  0  0  0  0  0
   -2.1437    2.7989   -9.1094 H   0  0  0  0  0  0  0  0  0  0  0  0
   -4.0935    3.4360   -7.9970 H   0  0  0  0  0  0  0  0  0  0  0  0
   -5.1964    4.3758   -9.0216 H   0  0  0  0  0  0  0  0  0  0  0  0
   -4.2576    5.1896   -7.7847 H   0  0  0  0  0  0  0  0  0  0  0  0
   -4.4341    7.6963  -11.7524 H   0  0  0  0  0  0  0  0  0  0  0  0
   -3.4462    8.5057  -10.5039 H   0  0  0  0  0  0  0  0  0  0  0  0
   -5.2081    8.3524  -10.2882 H   0  0  0  0  0  0  0  0  0  0  0  0
   -2.1918    6.9809  -11.7929 H   0  0  0  0  0  0  0  0  0  0  0  0
  1  2  2  0  0  0  0
  2  3  1  0  0  0  0
  3  4  2  0  0  0  0
  4  5  1  0  0  0  0
  5  6  2  0  0  0  0
  6  7  1  0  0  0  0
  7  8  2  0  0  0  0
  8  9  1  0  0  0  0
  9 10  1  0  0  0  0
 10 11  1  0  0  0  0
  8 12  1  0  0  0  0
 12 13  1  0  0  0  0
 12 14  2  0  0  0  0
  4 15  1  0  0  0  0
 15 16  2  0  0  0  0
 16 17  1  0  0  0  0
 17 18  1  0  0  0  0
 18 19  2  0  0  0  0
 19 20  1  0  0  0  0
 20 21  2  0  0  0  0
 21 22  1  0  0  0  0
 22 23  1  0  0  0  0
 23 24  1  0  0  0  0
 21 25  1  0  0  0  0
 25 26  2  0  0  0  0
 25 27  1  0  0  0  0
 17 28  2  0  0  0  0
 28 29  1  0  0  0  0
 16 30  1  0  0  0  0
 30 31  2  0  0  0  0
 31 32  1  0  0  0  0
 31 33  1  0  0  0  0
 33 34  1  0  0  0  0
 34 35  1  0  0  0  0
 35 36  2  0  0  0  0
 36 37  1  0  0  0  0
 37 38  1  0  0  0  0
 38 39  2  0  0  0  0
 39 40  1  0  0  0  0
 39 41  1  0  0  0  0
 41 42  1  0  0  0  0
 42 43  1  0  0  0  0
 41 44  2  0  0  0  0
 35 45  1  0  0  0  0
 45 46  2  0  0  0  0
 46 47  1  0  0  0  0
 47 48  2  0  0  0  0
 48 49  1  0  0  0  0
 49 50  2  0  0  0  0
 50 51  1  0  0  0  0
 51 52  2  0  0  0  0
 52 53  1  0  0  0  0
 53 54  1  0  0  0  0
 54 55  1  0  0  0  0
 52 56  1  0  0  0  0
 56 57  1  0  0  0  0
 56 58  2  0  0  0  0
 48 59  1  0  0  0  0
 59 60  2  0  0  0  0
 60 61  1  0  0  0  0
 61 62  1  0  0  0  0
 62 63  2  0  0  0  0
 63 64  1  0  0  0  0
 64 65  2  0  0  0  0
 65 66  1  0  0  0  0
 66 67  1  0  0  0  0
 67 68  1  0  0  0  0
 65 69  1  0  0  0  0
 69 70  2  0  0  0  0
 69 71  1  0  0  0  0
 61 72  2  0  0  0  0
 72 73  1  0  0  0  0
 60 74  1  0  0  0  0
 74 75  2  0  0  0  0
 75 76  1  0  0  0  0
 75 77  1  0  0  0  0
 77 78  1  0  0  0  0
 78 79  1  0  0  0  0
 79 80  2  0  0  0  0
 80 81  1  0  0  0  0
 81 82  1  0  0  0  0
 82 83  2  0  0  0  0
 83 84  1  0  0  0  0
 83 85  1  0  0  0  0
 85 86  1  0  0  0  0
 86 87  1  0  0  0  0
 85 88  2  0  0  0  0
 79 89  1  0  0  0  0
 89 90  1  0  0  0  0
 90 91  1  0  0  0  0
 91 92  2  0  0  0  0
 92 93  1  0  0  0  0
 93 94  1  0  0  0  0
 94 95  2  0  0  0  0
 95 96  1  0  0  0  0
 95 97  1  0  0  0  0
 97 98  1  0  0  0  0
 98 99  1  0  0  0  0
 97100  2  0  0  0  0
 91101  1  0  0  0  0
101102  1  0  0  0  0
102103  1  0  0  0  0
103104  2  0  0  0  0
104105  1  0  0  0  0
105106  1  0  0  0  0
106107  2  0  0  0  0
107108  1  0  0  0  0
107109  1  0  0  0  0
109110  1  0  0  0  0
110111  1  0  0  0  0
109112  2  0  0  0  0
 29  1  1  0  0  0  0
 37 33  2  0  0  0  0
 73 45  1  0  0  0  0
 81 77  2  0  0  0  0
 93 89  2  0  0  0  0
105101  2  0  0  0  0
 28  3  1  0  0  0  0
 44 36  1  0  0  0  0
 72 47  1  0  0  0  0
 88 80  1  0  0  0  0
100 92  1  0  0  0  0
112104  1  0  0  0  0
 14  5  1  0  0  0  0
 32 15  1  0  0  0  0
 58 49  1  0  0  0  0
 76 59  1  0  0  0  0
 26 18  1  0  0  0  0
 70 62  1  0  0  0  0
  1113  1  0  0  0  0
  2114  1  0  0  0  0
  6115  1  0  0  0  0
  7116  1  0  0  0  0
 10117  1  0  0  0  0
 10118  1  0  0  0  0
 11119  1  0  0  0  0
 11120  1  0  0  0  0
 11121  1  0  0  0  0
 14122  1  0  0  0  0
 19123  1  0  0  0  0
 20124  1  0  0  0  0
 23125  1  0  0  0  0
 23126  1  0  0  0  0
 24127  1  0  0  0  0
 24128  1  0  0  0  0
 24129  1  0  0  0  0
 26130  1  0  0  0  0
 30131  1  0  0  0  0
 38132  1  0  0  0  0
 40133  1  0  0  0  0
 40134  1  0  0  0  0
 40135  1  0  0  0  0
 43136  1  0  0  0  0
 43137  1  0  0  0  0
 43138  1  0  0  0  0
 44139  1  0  0  0  0
 46140  1  0  0  0  0
 50141  1  0  0  0  0
 51142  1  0  0  0  0
 54143  1  0  0  0  0
 54144  1  0  0  0  0
 55145  1  0  0  0  0
 55146  1  0  0  0  0
 55147  1  0  0  0  0
 58148  1  0  0  0  0
 63149  1  0  0  0  0
 64150  1  0  0  0  0
 67151  1  0  0  0  0
 67152  1  0  0  0  0
 68153  1  0  0  0  0
 68154  1  0  0  0  0
 68155  1  0  0  0  0
 70156  1  0  0  0  0
 74157  1  0  0  0  0
 82158  1  0  0  0  0
 84159  1  0  0  0  0
 84160  1  0  0  0  0
 84161  1  0  0  0  0
 87162  1  0  0  0  0
 87163  1  0  0  0  0
 87164  1  0  0  0  0
 88165  1  0  0  0  0
 94166  1  0  0  0  0
 96167  1  0  0  0  0
 96168  1  0  0  0  0
 96169  1  0  0  0  0
 99170  1  0  0  0  0
 99171  1  0  0  0  0
 99172  1  0  0  0  0
100173  1  0  0  0  0
103174  1  0  0  0  0
106175  1  0  0  0  0
108176  1  0  0  0  0
108177  1  0  0  0  0
108178  1  0  0  0  0
111179  1  0  0  0  0
111180  1  0  0  0  0
111181  1  0  0  0  0
112182  1  0  0  0  0
M  END
