
  xtb     03042208393D
 energy: -162.566482881505 gnorm: 0.000473553358 xtb: 6.4.1 (unknown)
 82 93  0     0  0            999 V2000
    1.2582   -1.4990    6.6451 C   0  0  0  0  0  0  0  0  0  0  0  0
    0.7068   -0.6102    5.7481 C   0  0  0  0  0  0  0  0  0  0  0  0
   -0.2033   -0.9593    4.7918 N   0  0  0  0  0  0  0  0  0  0  0  0
   -0.5570   -2.1861    4.6109 C   0  0  0  0  0  0  0  0  0  0  0  0
    0.0087   -3.2181    5.3978 C   0  0  0  0  0  0  0  0  0  0  0  0
    0.9183   -2.8478    6.4575 C   0  0  0  0  0  0  0  0  0  0  0  0
    1.2915   -3.9677    7.0551 N   0  0  0  0  0  0  0  0  0  0  0  0
    0.6637   -4.9512    6.4142 O   0  0  0  0  0  0  0  0  0  0  0  0
   -0.1100   -4.5306    5.4198 N   0  0  0  0  0  0  0  0  0  0  0  0
    1.0375    0.8092    5.7749 C   0  0  0  0  0  0  0  0  0  0  0  0
    0.9646    1.6326    4.6450 C   0  0  0  0  0  0  0  0  0  0  0  0
    0.9631    2.9925    4.7054 N   0  0  0  0  0  0  0  0  0  0  0  0
    1.1849    3.6334    5.8024 C   0  0  0  0  0  0  0  0  0  0  0  0
    1.4703    2.9209    6.9930 C   0  0  0  0  0  0  0  0  0  0  0  0
    1.3670    1.4795    6.9740 C   0  0  0  0  0  0  0  0  0  0  0  0
    1.6193    1.0603    8.2030 N   0  0  0  0  0  0  0  0  0  0  0  0
    1.8685    2.1582    8.9230 O   0  0  0  0  0  0  0  0  0  0  0  0
    1.7820    3.2795    8.2207 N   0  0  0  0  0  0  0  0  0  0  0  0
    0.8476    1.1187    3.3095 C   0  0  0  0  0  0  0  0  0  0  0  0
   -0.1165    2.0002    2.1851 S   0  0  0  0  0  0  0  0  0  0  0  0
    0.1558    0.8469    0.9244 C   0  0  0  0  0  0  0  0  0  0  0  0
    0.9774   -0.1998    1.3723 C   0  0  0  0  0  0  0  0  0  0  0  0
    1.4067   -0.0184    2.7191 C   0  0  0  0  0  0  0  0  0  0  0  0
    2.3173   -0.9463    3.2694 C   0  0  0  0  0  0  0  0  0  0  0  0
    2.6688   -2.0720    2.5835 C   0  0  0  0  0  0  0  0  0  0  0  0
    3.6002   -3.0903    3.1562 C   0  0  0  0  0  0  0  0  0  0  0  0
    2.1130   -2.3160    1.2868 C   0  0  0  0  0  0  0  0  0  0  0  0
    2.4743   -3.4959    0.7268 O   0  0  0  0  0  0  0  0  0  0  0  0
    1.9672   -3.8197   -0.5477 C   0  0  0  0  0  0  0  0  0  0  0  0
    1.3014   -1.3868    0.6878 C   0  0  0  0  0  0  0  0  0  0  0  0
   -0.4599    0.9827   -0.3458 C   0  0  0  0  0  0  0  0  0  0  0  0
   -2.0921    1.5348   -0.4783 S   0  0  0  0  0  0  0  0  0  0  0  0
   -2.1554    1.1781   -2.1735 C   0  0  0  0  0  0  0  0  0  0  0  0
   -0.8929    0.7956   -2.6503 C   0  0  0  0  0  0  0  0  0  0  0  0
    0.0681    0.6682   -1.6075 C   0  0  0  0  0  0  0  0  0  0  0  0
    1.3956    0.3223   -1.9340 C   0  0  0  0  0  0  0  0  0  0  0  0
    1.7516    0.0629   -3.2261 C   0  0  0  0  0  0  0  0  0  0  0  0
    3.1439   -0.3301   -3.6011 C   0  0  0  0  0  0  0  0  0  0  0  0
    0.7825    0.1990   -4.2696 C   0  0  0  0  0  0  0  0  0  0  0  0
    1.2550   -0.0608   -5.5133 O   0  0  0  0  0  0  0  0  0  0  0  0
    0.3934    0.0857   -6.6175 C   0  0  0  0  0  0  0  0  0  0  0  0
   -0.5042    0.5865   -3.9874 C   0  0  0  0  0  0  0  0  0  0  0  0
   -3.4093    1.2032   -2.8412 C   0  0  0  0  0  0  0  0  0  0  0  0
   -3.8126    0.3330   -3.8700 C   0  0  0  0  0  0  0  0  0  0  0  0
   -4.9314    0.5079   -4.6074 N   0  0  0  0  0  0  0  0  0  0  0  0
   -5.8031    1.4323   -4.3505 C   0  0  0  0  0  0  0  0  0  0  0  0
   -5.6162    2.2856   -3.2390 C   0  0  0  0  0  0  0  0  0  0  0  0
   -4.3955    2.1631   -2.4821 C   0  0  0  0  0  0  0  0  0  0  0  0
   -4.4335    3.0679   -1.5257 N   0  0  0  0  0  0  0  0  0  0  0  0
   -5.5971    3.7017   -1.6644 O   0  0  0  0  0  0  0  0  0  0  0  0
   -6.3224    3.2528   -2.6874 N   0  0  0  0  0  0  0  0  0  0  0  0
   -3.0684   -0.8692   -4.2284 C   0  0  0  0  0  0  0  0  0  0  0  0
   -3.0532   -1.3454   -5.5255 C   0  0  0  0  0  0  0  0  0  0  0  0
   -2.3612   -2.4091   -5.9706 N   0  0  0  0  0  0  0  0  0  0  0  0
   -1.6428   -3.1278   -5.1614 C   0  0  0  0  0  0  0  0  0  0  0  0
   -1.6054   -2.8137   -3.7845 C   0  0  0  0  0  0  0  0  0  0  0  0
   -2.3405   -1.6662   -3.3053 C   0  0  0  0  0  0  0  0  0  0  0  0
   -2.1671   -1.6167   -1.9977 N   0  0  0  0  0  0  0  0  0  0  0  0
   -1.3751   -2.6397   -1.6887 O   0  0  0  0  0  0  0  0  0  0  0  0
   -1.0205   -3.3711   -2.7410 N   0  0  0  0  0  0  0  0  0  0  0  0
    1.9236   -1.1860    7.4305 H   0  0  0  0  0  0  0  0  0  0  0  0
   -1.2994   -2.3909    3.8535 H   0  0  0  0  0  0  0  0  0  0  0  0
    1.1366    4.7118    5.7828 H   0  0  0  0  0  0  0  0  0  0  0  0
    2.7358   -0.7634    4.2474 H   0  0  0  0  0  0  0  0  0  0  0  0
    3.9560   -2.7858    4.1369 H   0  0  0  0  0  0  0  0  0  0  0  0
    4.4513   -3.2356    2.4932 H   0  0  0  0  0  0  0  0  0  0  0  0
    3.0924   -4.0504    3.2400 H   0  0  0  0  0  0  0  0  0  0  0  0
    2.3780   -4.7989   -0.7863 H   0  0  0  0  0  0  0  0  0  0  0  0
    0.8751   -3.8744   -0.5458 H   0  0  0  0  0  0  0  0  0  0  0  0
    2.2911   -3.0961   -1.3024 H   0  0  0  0  0  0  0  0  0  0  0  0
    0.8806   -1.5542   -0.2883 H   0  0  0  0  0  0  0  0  0  0  0  0
    2.1367    0.2810   -1.1509 H   0  0  0  0  0  0  0  0  0  0  0  0
    3.1378   -1.3023   -4.0920 H   0  0  0  0  0  0  0  0  0  0  0  0
    3.5556    0.3852   -4.3110 H   0  0  0  0  0  0  0  0  0  0  0  0
    3.7832   -0.3733   -2.7237 H   0  0  0  0  0  0  0  0  0  0  0  0
    0.9929   -0.1664   -7.4904 H   0  0  0  0  0  0  0  0  0  0  0  0
    0.0332    1.1147   -6.7103 H   0  0  0  0  0  0  0  0  0  0  0  0
   -0.4614   -0.5957   -6.5589 H   0  0  0  0  0  0  0  0  0  0  0  0
   -1.2228    0.7525   -4.7728 H   0  0  0  0  0  0  0  0  0  0  0  0
   -6.6595    1.5165   -5.0011 H   0  0  0  0  0  0  0  0  0  0  0  0
   -3.6146   -0.8207   -6.2854 H   0  0  0  0  0  0  0  0  0  0  0  0
   -1.0861   -3.9568   -5.5709 H   0  0  0  0  0  0  0  0  0  0  0  0
  1  2  2  0  0  0  0
  2  3  1  0  0  0  0
  3  4  2  0  0  0  0
  4  5  1  0  0  0  0
  5  6  1  0  0  0  0
  6  7  2  0  0  0  0
  7  8  1  0  0  0  0
  8  9  1  0  0  0  0
  2 10  1  0  0  0  0
 10 11  2  0  0  0  0
 11 12  1  0  0  0  0
 12 13  2  0  0  0  0
 13 14  1  0  0  0  0
 14 15  1  0  0  0  0
 15 16  2  0  0  0  0
 16 17  1  0  0  0  0
 17 18  1  0  0  0  0
 11 19  1  0  0  0  0
 19 20  1  0  0  0  0
 20 21  1  0  0  0  0
 21 22  2  0  0  0  0
 22 23  1  0  0  0  0
 23 24  1  0  0  0  0
 24 25  2  0  0  0  0
 25 26  1  0  0  0  0
 25 27  1  0  0  0  0
 27 28  1  0  0  0  0
 28 29  1  0  0  0  0
 27 30  2  0  0  0  0
 21 31  1  0  0  0  0
 31 32  1  0  0  0  0
 32 33  1  0  0  0  0
 33 34  2  0  0  0  0
 34 35  1  0  0  0  0
 35 36  1  0  0  0  0
 36 37  2  0  0  0  0
 37 38  1  0  0  0  0
 37 39  1  0  0  0  0
 39 40  1  0  0  0  0
 40 41  1  0  0  0  0
 39 42  2  0  0  0  0
 33 43  1  0  0  0  0
 43 44  2  0  0  0  0
 44 45  1  0  0  0  0
 45 46  2  0  0  0  0
 46 47  1  0  0  0  0
 47 48  1  0  0  0  0
 48 49  2  0  0  0  0
 49 50  1  0  0  0  0
 50 51  1  0  0  0  0
 44 52  1  0  0  0  0
 52 53  2  0  0  0  0
 53 54  1  0  0  0  0
 54 55  2  0  0  0  0
 55 56  1  0  0  0  0
 56 57  1  0  0  0  0
 57 58  2  0  0  0  0
 58 59  1  0  0  0  0
 59 60  1  0  0  0  0
  6  1  1  0  0  0  0
 15 10  1  0  0  0  0
 23 19  2  0  0  0  0
 35 31  2  0  0  0  0
 48 43  1  0  0  0  0
 57 52  1  0  0  0  0
  9  5  2  0  0  0  0
 18 14  2  0  0  0  0
 30 22  1  0  0  0  0
 42 34  1  0  0  0  0
 51 47  2  0  0  0  0
 60 56  2  0  0  0  0
  1 61  1  0  0  0  0
  4 62  1  0  0  0  0
 13 63  1  0  0  0  0
 24 64  1  0  0  0  0
 26 65  1  0  0  0  0
 26 66  1  0  0  0  0
 26 67  1  0  0  0  0
 29 68  1  0  0  0  0
 29 69  1  0  0  0  0
 29 70  1  0  0  0  0
 30 71  1  0  0  0  0
 36 72  1  0  0  0  0
 38 73  1  0  0  0  0
 38 74  1  0  0  0  0
 38 75  1  0  0  0  0
 41 76  1  0  0  0  0
 41 77  1  0  0  0  0
 41 78  1  0  0  0  0
 42 79  1  0  0  0  0
 46 80  1  0  0  0  0
 53 81  1  0  0  0  0
 55 82  1  0  0  0  0
M  END
