152

C         -5.07360        6.66240        6.47300
C         -4.10610        5.72790        6.38530
C         -4.24380        4.88980        5.23850
C         -3.40300        3.84750        4.81630
C         -2.25290        3.42010        5.62340
C         -2.40570        3.11950        6.97630
C         -1.32880        2.70550        7.72970
C         -0.05560        2.59050        7.17440
S          1.25510        2.11490        8.26340
C          2.31640        1.01760        7.25300
C          1.54240       -0.15650        6.68840
C          0.08620        2.91340        5.82860
F          1.29700        2.86800        5.23010
C         -0.98930        3.30220        5.05520
C         -3.72270        3.23650        3.61400
C         -4.84460        3.60530        2.83030
C         -5.68620        4.64630        3.25460
C         -6.84130        5.06460        2.45140
C         -8.11500        5.15460        3.00900
C         -9.19780        5.50700        2.23180
C         -9.05280        5.80320        0.87840
S        -10.50750        6.25570       -0.02290
C        -10.30340        5.39710       -1.62860
C        -10.10080        3.90520       -1.45590
C         -7.76730        5.76140        0.34760
C         -6.67930        5.38150        1.10600
F         -7.53980        6.09210       -0.94380
C         -5.36540        5.25700        4.45840
S         -6.22090        6.59800        5.17760
C         -4.98230        2.79270        1.67800
C         -4.01490        1.83490        1.55300
S         -2.86590        1.90360        2.88650
C         -3.80330        0.87960        0.52330
S         -2.23300        0.15650        0.38030
C         -2.68260       -0.77370       -1.01280
C         -4.00670       -0.50050       -1.37450
C         -4.65470        0.41010       -0.48420
C         -6.01930        0.70070       -0.70210
C         -6.68200        0.20100       -1.78480
C         -8.12610        0.49690       -2.03530
C         -5.98520       -0.61080       -2.73330
O         -6.72990       -0.99750       -3.80740
C         -6.12420       -1.81270       -4.77910
C         -4.67790       -0.95900       -2.52680
C         -1.72360       -1.62980       -1.60670
S         -0.05630       -1.14880       -1.59220
C          0.47020       -2.59410       -2.40360
C         -0.61780       -3.45200       -2.62180
C         -1.85890       -2.90170       -2.17720
C         -3.01960       -3.70300       -2.22830
C         -2.97730       -4.96940       -2.73380
C         -4.19530       -5.83420       -2.80540
C         -1.73100       -5.51320       -3.17230
O         -1.80060       -6.79630       -3.62790
C         -0.61600       -7.41750       -4.05960
C         -0.57650       -4.78000       -3.09220
C          1.85600       -2.74970       -2.63020
S          2.94150       -1.95360       -1.52840
C          4.36190       -2.58460       -2.31110
C          3.99520       -3.41640       -3.37690
C          2.58400       -3.45450       -3.59810
C          2.10060       -4.10650       -4.75280
C          2.93950       -4.81920       -5.55920
C          2.45370       -5.51890       -6.78880
C          4.32380       -4.92700       -5.21890
O          5.04850       -5.74020       -6.03960
C          6.42500       -5.88190       -5.79300
C          4.84140       -4.22740       -4.16140
C          5.61780       -2.19970       -1.79030
S          5.68610       -1.78460       -0.10580
C          7.36780       -1.35070       -0.16400
C          7.86060       -1.53880       -1.46600
C          6.86430       -1.98110       -2.39030
C          7.18360       -2.04310       -3.76240
C          8.44800       -1.78220       -4.20300
C          8.81120       -1.84750       -5.65240
C          9.45880       -1.41510       -3.26350
O         10.68730       -1.19530       -3.81090
C         11.73840       -0.80750       -2.96200
C          9.16340       -1.27260       -1.93320
C          8.01590       -0.90080        1.01080
S          9.74030       -1.04260        1.21750
C          9.69230       -0.40660        2.80380
C          8.41350       -0.07790        3.18910
C          7.44550       -0.35240        2.16880
C          6.10100       -0.00500        2.41570
C          5.71890        0.53310        3.60830
C          4.29580        0.89700        3.88100
C          6.68880        0.75730        4.63930
O          6.17110        1.27640        5.78860
C          7.04800        1.56680        6.84630
C          8.00800        0.47300        4.42970
H         -5.20120        7.41080        7.23050
H         -3.30160        5.63440        7.09200
H         -3.38340        3.18330        7.42920
H         -1.45340        2.46190        8.77350
H          3.07440        0.68470        7.96240
H          2.79560        1.60670        6.47500
H          2.22580       -0.84300        6.19240
H          0.80450        0.17590        5.96080
H          1.02780       -0.69300        7.48320
H         -0.81960        3.54220        4.01730
H         -8.25980        4.91620        4.05120
H        -10.18630        5.55440        2.66130
H        -11.23920        5.61000       -2.14510
H         -9.48370        5.85790       -2.17540
H        -10.07260        3.42360       -2.43120
H         -9.16210        3.69930       -0.94470
H        -10.91340        3.47330       -0.87520
H         -5.70300        5.36920        0.64600
H         -5.76330        2.94140        0.95800
H         -6.55430        1.31010        0.00790
H         -8.67710       -0.42960       -2.18540
H         -8.23110        1.08620       -2.94550
H         -8.56160        1.04420       -1.20380
H         -6.89480       -2.00620       -5.52380
H         -5.27780       -1.30830       -5.25640
H         -5.78330       -2.76230       -4.35350
H         -4.13110       -1.55980       -3.23360
H         -3.94350       -3.31540       -1.82780
H         -4.38200       -6.13230       -3.83620
H         -4.04110       -6.74530       -2.22970
H         -5.06560       -5.31030       -2.41870
H         -0.90950       -8.41130       -4.39420
H          0.11050       -7.50950       -3.24580
H         -0.15570       -6.87470       -4.89160
H          0.37860       -5.20910       -3.34010
H          1.05780       -4.00960       -5.01300
H          3.02660       -5.19350       -7.65540
H          1.39980       -5.31500       -6.96020
H          2.60110       -6.59390       -6.69050
H          6.79480       -6.55550       -6.56460
H          6.61460       -6.32060       -4.80800
H          6.94930       -4.92350       -5.86610
H          5.88190       -4.29500       -3.89290
H          6.40320       -2.26490       -4.47310
H          9.58960       -2.59310       -5.80960
H          7.94430       -2.09880       -6.25820
H          9.21130       -0.88990       -5.98120
H         11.93410       -1.56240       -2.19370
H         11.53160        0.15290       -2.47880
H         12.61320       -0.70760       -3.60280
H          9.90920       -0.94030       -1.23270
H         10.60280       -0.30750        3.35960
H          5.35700       -0.14830        1.64930
H          3.90980        0.28740        4.69630
H          4.22220        1.93800        4.19010
H          3.67980        0.74080        3.00010
H          7.55330        0.66530        7.20910
H          7.79880        2.30830        6.55410
H          6.42740        1.97750        7.64140
H          8.76460        0.65450        5.17620
