
  xtb     03052209343D
 energy: -192.553500045900 gnorm: 0.000397294062 xtb: 6.4.1 (unknown)
 98113  0     0  0            999 V2000
   12.7732    2.1520   12.5674 C   0  0  0  0  0  0  0  0  0  0  0  0
   11.7017    1.3105   12.7155 N   0  0  0  0  0  0  0  0  0  0  0  0
   10.9256    1.4930   11.6137 C   0  0  0  0  0  0  0  0  0  0  0  0
    9.7804    0.9044   11.2949 N   0  0  0  0  0  0  0  0  0  0  0  0
    9.3434    1.3634   10.1300 C   0  0  0  0  0  0  0  0  0  0  0  0
    8.2225    1.0313    9.4449 N   0  0  0  0  0  0  0  0  0  0  0  0
    8.2323    1.7892    8.2997 C   0  0  0  0  0  0  0  0  0  0  0  0
    9.2734    2.5795    8.2010 N   0  0  0  0  0  0  0  0  0  0  0  0
   10.0088    2.3556    9.3233 C   0  0  0  0  0  0  0  0  0  0  0  0
   11.1532    2.9267    9.6668 N   0  0  0  0  0  0  0  0  0  0  0  0
   11.6081    2.4829   10.8268 C   0  0  0  0  0  0  0  0  0  0  0  0
   12.7532    2.8505   11.4802 N   0  0  0  0  0  0  0  0  0  0  0  0
    7.1889    1.7020    7.3274 C   0  0  0  0  0  0  0  0  0  0  0  0
    7.2053    2.4687    6.1887 N   0  0  0  0  0  0  0  0  0  0  0  0
    6.0864    2.1462    5.4980 C   0  0  0  0  0  0  0  0  0  0  0  0
    5.6560    2.6229    4.3337 N   0  0  0  0  0  0  0  0  0  0  0  0
    4.5129    2.0435    4.0063 C   0  0  0  0  0  0  0  0  0  0  0  0
    3.7464    2.2533    2.9086 N   0  0  0  0  0  0  0  0  0  0  0  0
    2.6573    1.4052    3.0195 C   0  0  0  0  0  0  0  0  0  0  0  0
    2.6918    0.6821    4.1178 N   0  0  0  0  0  0  0  0  0  0  0  0
    3.8206    1.0399    4.7776 C   0  0  0  0  0  0  0  0  0  0  0  0
    4.2688    0.5825    5.9354 N   0  0  0  0  0  0  0  0  0  0  0  0
    5.4150    1.1501    6.2902 C   0  0  0  0  0  0  0  0  0  0  0  0
    6.1436    0.9140    7.4139 N   0  0  0  0  0  0  0  0  0  0  0  0
    1.6209    1.2866    2.0603 C   0  0  0  0  0  0  0  0  0  0  0  0
    0.6000   -0.0958    2.1972 S   0  0  0  0  0  0  0  0  0  0  0  0
   -0.3105    0.3214    0.7768 C   0  0  0  0  0  0  0  0  0  0  0  0
    0.1560    1.5412    0.2413 C   0  0  0  0  0  0  0  0  0  0  0  0
    1.2486    2.0920    0.9775 C   0  0  0  0  0  0  0  0  0  0  0  0
    1.7804    3.3374    0.5821 C   0  0  0  0  0  0  0  0  0  0  0  0
    1.2930    4.0001   -0.5072 C   0  0  0  0  0  0  0  0  0  0  0  0
    1.8429    5.3167   -0.9487 C   0  0  0  0  0  0  0  0  0  0  0  0
    0.2075    3.4375   -1.2450 C   0  0  0  0  0  0  0  0  0  0  0  0
   -0.2064    4.1794   -2.2999 O   0  0  0  0  0  0  0  0  0  0  0  0
   -1.2690    3.6983   -3.0919 C   0  0  0  0  0  0  0  0  0  0  0  0
   -0.3562    2.2456   -0.8627 C   0  0  0  0  0  0  0  0  0  0  0  0
   -1.3034   -0.5414    0.2565 C   0  0  0  0  0  0  0  0  0  0  0  0
   -1.7727   -0.4504   -1.4123 S   0  0  0  0  0  0  0  0  0  0  0  0
   -2.8461   -1.7975   -1.2826 C   0  0  0  0  0  0  0  0  0  0  0  0
   -2.8723   -2.3031    0.0226 C   0  0  0  0  0  0  0  0  0  0  0  0
   -1.9913   -1.5933    0.8960 C   0  0  0  0  0  0  0  0  0  0  0  0
   -1.9367   -1.9666    2.2530 C   0  0  0  0  0  0  0  0  0  0  0  0
   -2.6884   -3.0000    2.7339 C   0  0  0  0  0  0  0  0  0  0  0  0
   -2.6426   -3.4093    4.1696 C   0  0  0  0  0  0  0  0  0  0  0  0
   -3.5577   -3.7116    1.8524 C   0  0  0  0  0  0  0  0  0  0  0  0
   -4.2608   -4.7120    2.4402 O   0  0  0  0  0  0  0  0  0  0  0  0
   -5.1586   -5.4646    1.6628 C   0  0  0  0  0  0  0  0  0  0  0  0
   -3.6509   -3.3622    0.5283 C   0  0  0  0  0  0  0  0  0  0  0  0
   -3.5029   -2.1271   -2.4902 C   0  0  0  0  0  0  0  0  0  0  0  0
   -4.3118   -3.2243   -2.7305 N   0  0  0  0  0  0  0  0  0  0  0  0
   -4.7030   -3.1414   -4.0276 C   0  0  0  0  0  0  0  0  0  0  0  0
   -5.4809   -3.9662   -4.7084 N   0  0  0  0  0  0  0  0  0  0  0  0
   -5.6263   -3.5248   -5.9559 C   0  0  0  0  0  0  0  0  0  0  0  0
   -6.3372   -4.0652   -6.9751 N   0  0  0  0  0  0  0  0  0  0  0  0
   -6.1659   -3.2283   -8.0496 C   0  0  0  0  0  0  0  0  0  0  0  0
   -5.3994   -2.1949   -7.7914 N   0  0  0  0  0  0  0  0  0  0  0  0
   -5.0315   -2.3299   -6.4903 C   0  0  0  0  0  0  0  0  0  0  0  0
   -4.2540   -1.5180   -5.7840 N   0  0  0  0  0  0  0  0  0  0  0  0
   -4.0935   -1.9382   -4.5402 C   0  0  0  0  0  0  0  0  0  0  0  0
   -3.3688   -1.3609   -3.5542 N   0  0  0  0  0  0  0  0  0  0  0  0
   -6.7764   -3.4792   -9.3166 C   0  0  0  0  0  0  0  0  0  0  0  0
   -6.5905   -2.6263  -10.3773 N   0  0  0  0  0  0  0  0  0  0  0  0
   -7.2959   -3.1451  -11.4107 C   0  0  0  0  0  0  0  0  0  0  0  0
   -7.4304   -2.6854  -12.6472 N   0  0  0  0  0  0  0  0  0  0  0  0
   -8.2104   -3.4960  -13.3499 C   0  0  0  0  0  0  0  0  0  0  0  0
   -8.5996   -3.3922  -14.6490 N   0  0  0  0  0  0  0  0  0  0  0  0
   -9.3983   -4.4788  -14.8926 C   0  0  0  0  0  0  0  0  0  0  0  0
   -9.5540   -5.2615  -13.8762 N   0  0  0  0  0  0  0  0  0  0  0  0
   -8.8274   -4.6983  -12.8621 C   0  0  0  0  0  0  0  0  0  0  0  0
   -8.6794   -5.1382  -11.6232 N   0  0  0  0  0  0  0  0  0  0  0  0
   -7.9041   -4.3471  -10.8973 C   0  0  0  0  0  0  0  0  0  0  0  0
   -7.5462   -4.5029   -9.5936 N   0  0  0  0  0  0  0  0  0  0  0  0
   13.5529    2.2123   13.3019 H   0  0  0  0  0  0  0  0  0  0  0  0
   11.5137    0.6806   13.4776 H   0  0  0  0  0  0  0  0  0  0  0  0
    7.5044    0.3693    9.6909 H   0  0  0  0  0  0  0  0  0  0  0  0
    7.9260    3.1309    5.9507 H   0  0  0  0  0  0  0  0  0  0  0  0
    3.9849    2.8414    2.1287 H   0  0  0  0  0  0  0  0  0  0  0  0
    2.5623    3.8013    1.1628 H   0  0  0  0  0  0  0  0  0  0  0  0
    2.6424    5.6488   -0.2921 H   0  0  0  0  0  0  0  0  0  0  0  0
    2.2229    5.2364   -1.9659 H   0  0  0  0  0  0  0  0  0  0  0  0
    1.0525    6.0651   -0.9596 H   0  0  0  0  0  0  0  0  0  0  0  0
   -2.1962    3.6249   -2.5160 H   0  0  0  0  0  0  0  0  0  0  0  0
   -1.3955    4.4312   -3.8868 H   0  0  0  0  0  0  0  0  0  0  0  0
   -1.0364    2.7230   -3.5284 H   0  0  0  0  0  0  0  0  0  0  0  0
   -1.2052    1.8525   -1.3912 H   0  0  0  0  0  0  0  0  0  0  0  0
   -1.3028   -1.4215    2.9324 H   0  0  0  0  0  0  0  0  0  0  0  0
   -3.6320   -3.3213    4.6158 H   0  0  0  0  0  0  0  0  0  0  0  0
   -2.3449   -4.4534    4.2495 H   0  0  0  0  0  0  0  0  0  0  0  0
   -1.9412   -2.7931    4.7241 H   0  0  0  0  0  0  0  0  0  0  0  0
   -5.9529   -4.8377    1.2443 H   0  0  0  0  0  0  0  0  0  0  0  0
   -5.5983   -6.1924    2.3428 H   0  0  0  0  0  0  0  0  0  0  0  0
   -4.6445   -5.9935    0.8535 H   0  0  0  0  0  0  0  0  0  0  0  0
   -4.3326   -3.8781   -0.1267 H   0  0  0  0  0  0  0  0  0  0  0  0
   -4.5328   -3.9754   -2.1003 H   0  0  0  0  0  0  0  0  0  0  0  0
   -6.8894   -4.9075   -6.9819 H   0  0  0  0  0  0  0  0  0  0  0  0
   -6.0313   -1.7890  -10.3490 H   0  0  0  0  0  0  0  0  0  0  0  0
   -8.3446   -2.6576  -15.2878 H   0  0  0  0  0  0  0  0  0  0  0  0
   -9.8473   -4.6488  -15.8520 H   0  0  0  0  0  0  0  0  0  0  0  0
  1  2  1  0  0  0  0
  2  3  1  0  0  0  0
  3  4  2  0  0  0  0
  4  5  1  0  0  0  0
  5  6  1  0  0  0  0
  6  7  1  0  0  0  0
  7  8  2  0  0  0  0
  8  9  1  0  0  0  0
  9 10  1  0  0  0  0
 10 11  2  0  0  0  0
 11 12  1  0  0  0  0
  7 13  1  0  0  0  0
 13 14  1  0  0  0  0
 14 15  1  0  0  0  0
 15 16  2  0  0  0  0
 16 17  1  0  0  0  0
 17 18  1  0  0  0  0
 18 19  1  0  0  0  0
 19 20  2  0  0  0  0
 20 21  1  0  0  0  0
 21 22  1  0  0  0  0
 22 23  2  0  0  0  0
 23 24  1  0  0  0  0
 19 25  1  0  0  0  0
 25 26  1  0  0  0  0
 26 27  1  0  0  0  0
 27 28  2  0  0  0  0
 28 29  1  0  0  0  0
 29 30  1  0  0  0  0
 30 31  2  0  0  0  0
 31 32  1  0  0  0  0
 31 33  1  0  0  0  0
 33 34  1  0  0  0  0
 34 35  1  0  0  0  0
 33 36  2  0  0  0  0
 27 37  1  0  0  0  0
 37 38  1  0  0  0  0
 38 39  1  0  0  0  0
 39 40  2  0  0  0  0
 40 41  1  0  0  0  0
 41 42  1  0  0  0  0
 42 43  2  0  0  0  0
 43 44  1  0  0  0  0
 43 45  1  0  0  0  0
 45 46  1  0  0  0  0
 46 47  1  0  0  0  0
 45 48  2  0  0  0  0
 39 49  1  0  0  0  0
 49 50  1  0  0  0  0
 50 51  1  0  0  0  0
 51 52  2  0  0  0  0
 52 53  1  0  0  0  0
 53 54  1  0  0  0  0
 54 55  1  0  0  0  0
 55 56  2  0  0  0  0
 56 57  1  0  0  0  0
 57 58  1  0  0  0  0
 58 59  2  0  0  0  0
 59 60  1  0  0  0  0
 55 61  1  0  0  0  0
 61 62  1  0  0  0  0
 62 63  1  0  0  0  0
 63 64  2  0  0  0  0
 64 65  1  0  0  0  0
 65 66  1  0  0  0  0
 66 67  1  0  0  0  0
 67 68  2  0  0  0  0
 68 69  1  0  0  0  0
 69 70  1  0  0  0  0
 70 71  2  0  0  0  0
 71 72  1  0  0  0  0
 12  1  2  0  0  0  0
 24 13  2  0  0  0  0
 29 25  2  0  0  0  0
 41 37  2  0  0  0  0
 60 49  2  0  0  0  0
 72 61  2  0  0  0  0
 11  3  1  0  0  0  0
 23 15  1  0  0  0  0
 36 28  1  0  0  0  0
 48 40  1  0  0  0  0
 59 51  1  0  0  0  0
 71 63  1  0  0  0  0
  9  5  2  0  0  0  0
 21 17  2  0  0  0  0
 57 53  2  0  0  0  0
 69 65  2  0  0  0  0
  1 73  1  0  0  0  0
  2 74  1  0  0  0  0
  6 75  1  0  0  0  0
 14 76  1  0  0  0  0
 18 77  1  0  0  0  0
 30 78  1  0  0  0  0
 32 79  1  0  0  0  0
 32 80  1  0  0  0  0
 32 81  1  0  0  0  0
 35 82  1  0  0  0  0
 35 83  1  0  0  0  0
 35 84  1  0  0  0  0
 36 85  1  0  0  0  0
 42 86  1  0  0  0  0
 44 87  1  0  0  0  0
 44 88  1  0  0  0  0
 44 89  1  0  0  0  0
 47 90  1  0  0  0  0
 47 91  1  0  0  0  0
 47 92  1  0  0  0  0
 48 93  1  0  0  0  0
 50 94  1  0  0  0  0
 54 95  1  0  0  0  0
 62 96  1  0  0  0  0
 66 97  1  0  0  0  0
 67 98  1  0  0  0  0
M  END
