210

C          3.32140        4.45450       11.63370
C          2.88840        5.01750       10.48740
C          1.53900        4.67790       10.18000
C          0.75770        5.09940        9.09240
C          1.27880        6.00690        8.08120
S          1.25370        5.57800        6.39610
C          2.00290        7.06470        5.92760
C          2.25360        7.38480        4.49550
C          1.00040        7.96910        3.83990
C          2.23750        7.84330        7.02150
Cl         2.95870        9.39950        6.95250
C          1.83420        7.24430        8.24490
Cl         1.97070        8.04480        9.75780
C         -0.53220        4.59670        9.01050
C         -1.07580        3.69380        9.95590
C         -0.29210        3.26790       11.04200
C         -0.80550        2.31340       12.01090
S         -2.29660        2.59600       12.86130
C         -2.17930        1.10140       13.73090
C         -3.23700        0.68530       14.69300
C         -4.60160        0.58250       14.01230
C         -1.04840        0.43520       13.36780
C         -0.26680        1.11820       12.39610
Cl         1.15580        0.43880       11.72420
Cl        -0.58420       -1.09020       14.00310
C          0.99480        3.78600       11.13520
S          2.13760        3.45900       12.40690
C         -2.38830        3.28850        9.61310
C         -2.86280        3.86970        8.46900
S         -1.68370        4.96860        7.76290
C         -4.05860        3.61830        7.74570
S         -4.10810        4.08900        6.08130
C         -5.61560        3.27750        5.79180
C         -6.07620        2.67370        6.97060
C         -5.21400        2.90640        8.08830
C         -5.59840        2.41830        9.35580
C         -6.72110        1.65820        9.50430
C         -7.15810        1.13960       10.83600
C         -7.50100        1.31760        8.35500
O         -8.55170        0.49080        8.60770
C         -9.37730        0.10760        7.53580
C         -7.18770        1.82020        7.11980
C         -6.04910        3.18740        4.44610
S         -4.80730        3.26500        3.23690
C         -5.90420        2.88510        1.94720
C         -7.20480        2.75060        2.43570
C         -7.29690        2.97230        3.84600
C         -8.57710        3.03130        4.43610
C         -9.69870        2.77330        3.70270
C        -11.06670        2.82990        4.30410
C         -9.58390        2.45160        2.31280
O        -10.76440        2.17790        1.69760
C        -10.74730        1.86590        0.32580
C         -8.36470        2.46900        1.68770
C         -5.32340        2.69090        0.66940
C         -4.08570        3.15360        0.31340
C         -3.59360        2.61530       -0.89230
C         -2.30610        2.77330       -1.43370
C         -1.30440        3.56870       -0.74170
S         -0.46600        4.86900       -1.53290
C          0.42850        5.26580       -0.10330
C          1.37880        6.41160       -0.08500
C          0.64190        7.74500       -0.22110
C          0.08900        4.42710        0.91530
Cl         0.75720        4.50110        2.49500
C         -0.88720        3.45870        0.55580
Cl        -1.41000        2.23550        1.64310
C         -2.02550        2.07420       -2.59720
C         -2.96530        1.21820       -3.22170
C         -4.24420        1.03570       -2.66060
C         -5.16950        0.06270       -3.22020
S         -6.80290        0.49400       -3.63070
C         -7.17260       -1.10490       -4.18080
C         -8.50050       -1.43770       -4.76630
C         -8.50650       -1.20030       -6.27850
C         -6.08380       -1.91360       -4.04800
C         -4.94970       -1.25900       -3.49740
Cl        -3.49430       -2.10430       -3.14920
Cl        -6.06280       -3.56960       -4.49220
C         -4.53340        1.75460       -1.51210
S         -5.99640        1.63660       -0.56680
C         -2.40240        0.54200       -4.32870
C         -1.07260        0.79500       -4.50210
S         -0.47300        1.99900       -3.38020
C         -0.17840        0.02110       -5.30290
C         -0.40870       -1.27410       -5.66460
C          0.71590       -1.91320       -6.23410
C          0.84410       -3.27950       -6.54880
C         -0.31960       -4.14370       -6.46760
S         -0.32090       -5.60600       -5.52780
C         -1.99310       -5.90590       -5.85480
C         -2.71280       -7.05170       -5.23420
C         -3.34070       -6.63520       -3.90130
C         -2.50540       -4.92690       -6.65370
Cl        -4.13380       -4.88530       -7.19010
C         -1.56030       -3.92840       -7.00510
Cl        -1.94310       -2.62850       -8.05930
C          2.11790       -3.73110       -6.86170
C          3.22750       -2.85530       -6.95990
C          3.09300       -1.48490       -6.67650
C          4.25230       -0.60690       -6.69530
S          4.26900        0.85300       -7.63780
C          5.88650        1.23690       -7.15930
C          6.59860        2.42540       -7.70440
C          7.38690        2.05630       -8.96390
C          6.37040        0.28140       -6.31610
C          5.44700       -0.76270       -6.04660
Cl         5.80180       -2.03570       -4.94800
Cl         7.94040        0.32080       -5.63050
C          1.83180       -1.04460       -6.30530
S          1.44050        0.54540       -5.70800
C          4.41450       -3.54600       -7.29010
C          4.25860       -4.89970       -7.35990
S          2.59030       -5.38470       -7.14410
C          5.33890       -5.82930       -7.45690
C          6.63780       -5.51280       -7.18620
C          7.52270       -6.60980       -7.28770
C          8.91030       -6.60770       -7.07020
C          9.58910       -5.35620       -6.77780
S         10.54810       -5.14520       -5.34350
C         10.83540       -3.47360       -5.68740
C         11.58410       -2.60590       -4.73730
C         10.63990       -2.01550       -3.68650
C         10.22420       -3.11630       -6.85250
Cl        10.28310       -1.53830       -7.52040
C          9.51910       -4.18020       -7.47390
Cl         8.72210       -3.99860       -8.98450
C          9.55250       -7.83630       -7.12550
C          8.87370       -9.04260       -7.42490
C          7.49550       -9.03160       -7.69810
C          6.78430      -10.25070       -8.04720
S          5.36300      -10.74680       -7.17830
C          5.17270      -12.16750       -8.14710
C          4.08450      -13.14550       -7.87190
C          4.47900      -14.10090       -6.74300
C          6.16090      -12.23980       -9.08310
C          7.07440      -11.15280       -9.03240
Cl         8.35930      -10.97090      -10.15630
Cl         6.30340      -13.50830      -10.23050
C          6.84280       -7.80910       -7.60420
S          5.13790       -7.52490       -7.83800
C          9.75550      -10.16210       -7.37200
C         11.02620       -9.81560       -7.08390
S         11.24790       -8.11590       -6.84810
H          4.28620        4.55050       12.09200
H          3.49640        5.64990        9.86750
H          2.54690        6.47590        3.96730
H          3.07060        8.10640        4.43550
H          0.68290        8.86590        4.36600
H          0.19090        7.24390        3.86590
H          1.20820        8.22650        2.80510
H         -2.95440       -0.28010       15.11540
H         -3.29590        1.41230       15.50720
H         -4.89420        1.55280       13.61720
H         -5.35330        0.25510       14.72520
H         -4.56370       -0.13160       13.19310
H         -2.92780        2.54410       10.16570
H         -5.00940        2.67220       10.22230
H         -8.18360        1.44430       11.03690
H         -6.51140        1.50840       11.62670
H         -7.13960        0.05080       10.83640
H         -8.81860       -0.44770        6.77570
H         -9.85820        0.97270        7.06800
H        -10.13930       -0.53920        7.96770
H         -7.75660        1.55620        6.24580
H         -8.66680        3.32780        5.46970
H        -11.54340        1.85240        4.24090
H        -11.69040        3.52850        3.74920
H        -11.02090        3.14070        5.34460
H        -11.78220        1.65870        0.05830
H        -10.13380        0.98240        0.12280
H        -10.37860        2.70530       -0.27200
H         -8.26240        2.28620        0.63090
H         -3.54050        3.85170        0.92130
H          2.08880        6.30800       -0.90870
H          1.93120        6.38360        0.85560
H          0.10570        7.78260       -1.16620
H          1.34950        8.56940       -0.18920
H         -0.07450        7.86600        0.58790
H         -8.72140       -2.48750       -4.56230
H         -9.26780       -0.82000       -4.29680
H         -9.47950       -1.45130       -6.69200
H         -8.29150       -0.15720       -6.49770
H         -7.75360       -1.81910       -6.75990
H         -2.95670       -0.11930       -4.96720
H         -1.32810       -1.78180       -5.44300
H         -3.49690       -7.38770       -5.91600
H         -2.01400       -7.87310       -5.06950
H         -2.57120       -6.30220       -3.20890
H         -3.87060       -7.47440       -3.45870
H         -4.04430       -5.82100       -4.05450
H          7.28530        2.80480       -6.94460
H          5.87280        3.20450       -7.94160
H          6.71590        1.68140       -9.73310
H          7.90630        2.92970       -9.34870
H          8.12050        1.28660       -8.73780
H          5.35180       -3.05500       -7.46810
H          6.94810       -4.53480       -6.87250
H         12.05830       -1.79710       -5.29670
H         12.35950       -3.19310       -4.24270
H          9.86770       -1.41950       -4.16570
H         10.16200       -2.81040       -3.11890
H         11.19400       -1.38020       -3.00080
H          3.88700      -13.71500       -8.78180
H          3.17770      -12.60720       -7.59080
H          3.67470      -14.80640       -6.55280
H          4.67870      -13.54370       -5.83090
H          5.37300      -14.65660       -7.01450
H          9.43680      -11.17540       -7.53110
H         11.87780      -10.46010       -6.98580
