
  xtb     03042203403D
 energy: -306.994339506911 gnorm: 0.000281350936 xtb: 6.4.1 (unknown)
182199  0     0  0            999 V2000
    9.3167   -1.9115   10.8356 C   0  0  0  0  0  0  0  0  0  0  0  0
    7.7212   -1.7448   10.2600 S   0  0  0  0  0  0  0  0  0  0  0  0
    8.1987   -2.0455    8.6122 C   0  0  0  0  0  0  0  0  0  0  0  0
    9.5746   -2.2669    8.5398 C   0  0  0  0  0  0  0  0  0  0  0  0
   10.2079   -2.1856    9.8243 C   0  0  0  0  0  0  0  0  0  0  0  0
   11.6073   -2.3794    9.9287 C   0  0  0  0  0  0  0  0  0  0  0  0
   12.3545   -2.6356    8.8224 C   0  0  0  0  0  0  0  0  0  0  0  0
   13.8333   -2.8431    8.8866 C   0  0  0  0  0  0  0  0  0  0  0  0
   11.7165   -2.7087    7.5382 C   0  0  0  0  0  0  0  0  0  0  0  0
   12.5651   -2.9622    6.5065 O   0  0  0  0  0  0  0  0  0  0  0  0
   12.0374   -3.0403    5.2050 C   0  0  0  0  0  0  0  0  0  0  0  0
   10.3664   -2.5313    7.4026 C   0  0  0  0  0  0  0  0  0  0  0  0
    7.1981   -2.0196    7.6032 C   0  0  0  0  0  0  0  0  0  0  0  0
    5.8893   -1.6582    7.7696 C   0  0  0  0  0  0  0  0  0  0  0  0
    5.1106   -1.7190    6.5892 C   0  0  0  0  0  0  0  0  0  0  0  0
    3.7517   -1.3949    6.4295 C   0  0  0  0  0  0  0  0  0  0  0  0
    2.9212   -0.9970    7.5721 C   0  0  0  0  0  0  0  0  0  0  0  0
    2.8774   -1.7716    8.7277 C   0  0  0  0  0  0  0  0  0  0  0  0
    2.0891   -1.4094    9.8028 C   0  0  0  0  0  0  0  0  0  0  0  0
    1.3128   -0.2571    9.7597 C   0  0  0  0  0  0  0  0  0  0  0  0
    0.2888    0.3359   11.0658 S   0  0  0  0  0  0  0  0  0  0  0  0
    0.0811   -1.1110   12.1603 C   0  0  0  0  0  0  0  0  0  0  0  0
   -0.7669   -2.1958   11.5239 C   0  0  0  0  0  0  0  0  0  0  0  0
    1.3720    0.5137    8.5973 C   0  0  0  0  0  0  0  0  0  0  0  0
    0.6456    1.6470    8.5272 F   0  0  0  0  0  0  0  0  0  0  0  0
    2.1503    0.1624    7.5181 C   0  0  0  0  0  0  0  0  0  0  0  0
    3.2397   -1.4728    5.1429 C   0  0  0  0  0  0  0  0  0  0  0  0
    4.0090   -1.9010    4.0335 C   0  0  0  0  0  0  0  0  0  0  0  0
    5.3602   -2.2548    4.1959 C   0  0  0  0  0  0  0  0  0  0  0  0
    6.1482   -2.7187    3.0479 C   0  0  0  0  0  0  0  0  0  0  0  0
    5.6568   -3.7157    2.2041 C   0  0  0  0  0  0  0  0  0  0  0  0
    6.3688   -4.1139    1.0941 C   0  0  0  0  0  0  0  0  0  0  0  0
    7.5976   -3.5366    0.7760 C   0  0  0  0  0  0  0  0  0  0  0  0
    8.3732   -4.0618   -0.7228 S   0  0  0  0  0  0  0  0  0  0  0  0
   10.1695   -3.9768   -0.3484 C   0  0  0  0  0  0  0  0  0  0  0  0
   10.9048   -4.9372   -1.2620 C   0  0  0  0  0  0  0  0  0  0  0  0
    8.0828   -2.5539    1.6327 C   0  0  0  0  0  0  0  0  0  0  0  0
    7.3846   -2.1544    2.7545 C   0  0  0  0  0  0  0  0  0  0  0  0
    9.2604   -1.9357    1.3810 F   0  0  0  0  0  0  0  0  0  0  0  0
    5.8802   -2.1291    5.4719 C   0  0  0  0  0  0  0  0  0  0  0  0
    7.5265   -2.4680    5.9363 S   0  0  0  0  0  0  0  0  0  0  0  0
    3.2652   -1.8707    2.8316 C   0  0  0  0  0  0  0  0  0  0  0  0
    1.9689   -1.4748    2.9954 C   0  0  0  0  0  0  0  0  0  0  0  0
    1.6007   -1.1019    4.6650 S   0  0  0  0  0  0  0  0  0  0  0  0
    1.0112   -1.3403    1.9460 C   0  0  0  0  0  0  0  0  0  0  0  0
    1.1637   -1.8109    0.6736 C   0  0  0  0  0  0  0  0  0  0  0  0
    0.1044   -1.4638   -0.1957 C   0  0  0  0  0  0  0  0  0  0  0  0
   -0.0067   -1.7479   -1.5698 C   0  0  0  0  0  0  0  0  0  0  0  0
    1.0751   -2.4558   -2.2646 C   0  0  0  0  0  0  0  0  0  0  0  0
    2.3990   -2.0514   -2.1083 C   0  0  0  0  0  0  0  0  0  0  0  0
    3.4397   -2.7545   -2.6828 C   0  0  0  0  0  0  0  0  0  0  0  0
    3.1935   -3.8912   -3.4445 C   0  0  0  0  0  0  0  0  0  0  0  0
    4.4234   -4.9156   -4.1793 S   0  0  0  0  0  0  0  0  0  0  0  0
    5.9910   -4.3541   -3.4264 C   0  0  0  0  0  0  0  0  0  0  0  0
    6.6349   -3.2055   -4.1794 C   0  0  0  0  0  0  0  0  0  0  0  0
    1.8589   -4.2546   -3.6373 C   0  0  0  0  0  0  0  0  0  0  0  0
    1.5800   -5.3375   -4.3918 F   0  0  0  0  0  0  0  0  0  0  0  0
    0.8132   -3.5657   -3.0650 C   0  0  0  0  0  0  0  0  0  0  0  0
   -1.1610   -1.3139   -2.1965 C   0  0  0  0  0  0  0  0  0  0  0  0
   -2.1807   -0.5863   -1.5295 C   0  0  0  0  0  0  0  0  0  0  0  0
   -2.0551   -0.2829   -0.1616 C   0  0  0  0  0  0  0  0  0  0  0  0
   -3.0669    0.5085    0.5477 C   0  0  0  0  0  0  0  0  0  0  0  0
   -3.5098    1.7302    0.0422 C   0  0  0  0  0  0  0  0  0  0  0  0
   -4.4311    2.4842    0.7365 C   0  0  0  0  0  0  0  0  0  0  0  0
   -4.9585    2.0473    1.9499 C   0  0  0  0  0  0  0  0  0  0  0  0
   -6.1574    3.0815    2.7399 S   0  0  0  0  0  0  0  0  0  0  0  0
   -5.7024    2.9974    4.5120 C   0  0  0  0  0  0  0  0  0  0  0  0
   -4.2682    3.4234    4.7524 C   0  0  0  0  0  0  0  0  0  0  0  0
   -4.5336    0.8107    2.4251 C   0  0  0  0  0  0  0  0  0  0  0  0
   -3.5916    0.0579    1.7544 C   0  0  0  0  0  0  0  0  0  0  0  0
   -5.0406    0.2973    3.5675 F   0  0  0  0  0  0  0  0  0  0  0  0
   -0.9147   -0.7455    0.4758 C   0  0  0  0  0  0  0  0  0  0  0  0
   -0.4981   -0.4772    2.1514 S   0  0  0  0  0  0  0  0  0  0  0  0
   -3.2432   -0.2544   -2.3974 C   0  0  0  0  0  0  0  0  0  0  0  0
   -3.0624   -0.6604   -3.6952 C   0  0  0  0  0  0  0  0  0  0  0  0
   -1.5406   -1.5177   -3.8873 S   0  0  0  0  0  0  0  0  0  0  0  0
   -3.9497   -0.4055   -4.7688 C   0  0  0  0  0  0  0  0  0  0  0  0
   -5.3532    0.5730   -4.4516 S   0  0  0  0  0  0  0  0  0  0  0  0
   -5.8969    0.4960   -6.0980 C   0  0  0  0  0  0  0  0  0  0  0  0
   -4.9888   -0.2321   -6.8780 C   0  0  0  0  0  0  0  0  0  0  0  0
   -3.9016   -0.7650   -6.1208 C   0  0  0  0  0  0  0  0  0  0  0  0
   -2.9299   -1.5413   -6.7872 C   0  0  0  0  0  0  0  0  0  0  0  0
   -2.9931   -1.7420   -8.1350 C   0  0  0  0  0  0  0  0  0  0  0  0
   -1.9785   -2.5664   -8.8587 C   0  0  0  0  0  0  0  0  0  0  0  0
   -4.0385   -1.1306   -8.8949 C   0  0  0  0  0  0  0  0  0  0  0  0
   -3.9724   -1.3537  -10.2368 O   0  0  0  0  0  0  0  0  0  0  0  0
   -4.9728   -0.8018  -11.0557 C   0  0  0  0  0  0  0  0  0  0  0  0
   -5.0092   -0.3868   -8.2792 C   0  0  0  0  0  0  0  0  0  0  0  0
   -7.0865    1.1639   -6.4727 C   0  0  0  0  0  0  0  0  0  0  0  0
   -7.5148    2.6491   -5.6820 S   0  0  0  0  0  0  0  0  0  0  0  0
   -8.9268    2.8977   -6.6692 C   0  0  0  0  0  0  0  0  0  0  0  0
   -9.0646    1.8297   -7.5743 C   0  0  0  0  0  0  0  0  0  0  0  0
   -8.0470    0.8378   -7.4359 C   0  0  0  0  0  0  0  0  0  0  0  0
   -8.1493   -0.3635   -8.1698 C   0  0  0  0  0  0  0  0  0  0  0  0
   -9.1383   -0.5397   -9.0913 C   0  0  0  0  0  0  0  0  0  0  0  0
   -9.2738   -1.8020   -9.8814 C   0  0  0  0  0  0  0  0  0  0  0  0
  -10.0784    0.5118   -9.3191 C   0  0  0  0  0  0  0  0  0  0  0  0
  -10.9838    0.2567  -10.3043 O   0  0  0  0  0  0  0  0  0  0  0  0
  -11.9707    1.2206  -10.5749 C   0  0  0  0  0  0  0  0  0  0  0  0
  -10.0515    1.6561   -8.5662 C   0  0  0  0  0  0  0  0  0  0  0  0
   -9.7727    4.0099   -6.4445 C   0  0  0  0  0  0  0  0  0  0  0  0
  -11.4073    4.0311   -7.0538 S   0  0  0  0  0  0  0  0  0  0  0  0
  -11.7580    5.5369   -6.3309 C   0  0  0  0  0  0  0  0  0  0  0  0
  -10.6801    6.0382   -5.6395 C   0  0  0  0  0  0  0  0  0  0  0  0
   -9.5368    5.1756   -5.6987 C   0  0  0  0  0  0  0  0  0  0  0  0
   -8.3555    5.5995   -5.0547 C   0  0  0  0  0  0  0  0  0  0  0  0
   -8.3090    6.7767   -4.3674 C   0  0  0  0  0  0  0  0  0  0  0  0
   -7.0656    7.2335   -3.6750 C   0  0  0  0  0  0  0  0  0  0  0  0
   -9.4685    7.6151   -4.2934 C   0  0  0  0  0  0  0  0  0  0  0  0
   -9.2910    8.7568   -3.5716 O   0  0  0  0  0  0  0  0  0  0  0  0
  -10.3763    9.6388   -3.4404 C   0  0  0  0  0  0  0  0  0  0  0  0
  -10.6257    7.2584   -4.9241 C   0  0  0  0  0  0  0  0  0  0  0  0
    9.5199   -1.7979   11.8816 H   0  0  0  0  0  0  0  0  0  0  0  0
   12.0693   -2.3170   10.9026 H   0  0  0  0  0  0  0  0  0  0  0  0
   14.0896   -3.8255    8.4932 H   0  0  0  0  0  0  0  0  0  0  0  0
   14.3407   -2.1047    8.2680 H   0  0  0  0  0  0  0  0  0  0  0  0
   14.1912   -2.7614    9.9092 H   0  0  0  0  0  0  0  0  0  0  0  0
   12.8872   -3.2410    4.5544 H   0  0  0  0  0  0  0  0  0  0  0  0
   11.5654   -2.0996    4.9049 H   0  0  0  0  0  0  0  0  0  0  0  0
   11.3096   -3.8531    5.1147 H   0  0  0  0  0  0  0  0  0  0  0  0
    9.8940   -2.5860    6.4377 H   0  0  0  0  0  0  0  0  0  0  0  0
    5.5012   -1.3287    8.7168 H   0  0  0  0  0  0  0  0  0  0  0  0
    3.4536   -2.6832    8.7800 H   0  0  0  0  0  0  0  0  0  0  0  0
    2.0905   -2.0345   10.6810 H   0  0  0  0  0  0  0  0  0  0  0  0
   -0.4151   -0.6953   13.0372 H   0  0  0  0  0  0  0  0  0  0  0  0
    1.0651   -1.4706   12.4586 H   0  0  0  0  0  0  0  0  0  0  0  0
   -0.9003   -3.0197   12.2223 H   0  0  0  0  0  0  0  0  0  0  0  0
   -1.7449   -1.8001   11.2609 H   0  0  0  0  0  0  0  0  0  0  0  0
   -0.2984   -2.5783   10.6195 H   0  0  0  0  0  0  0  0  0  0  0  0
    2.1634    0.8037    6.6512 H   0  0  0  0  0  0  0  0  0  0  0  0
    4.7180   -4.1950    2.4361 H   0  0  0  0  0  0  0  0  0  0  0  0
    5.9831   -4.8863    0.4463 H   0  0  0  0  0  0  0  0  0  0  0  0
   10.2922   -4.2541    0.6975 H   0  0  0  0  0  0  0  0  0  0  0  0
   10.5045   -2.9517   -0.5005 H   0  0  0  0  0  0  0  0  0  0  0  0
   10.7494   -4.6678   -2.3044 H   0  0  0  0  0  0  0  0  0  0  0  0
   10.5500   -5.9546   -1.1127 H   0  0  0  0  0  0  0  0  0  0  0  0
   11.9709   -4.9027   -1.0485 H   0  0  0  0  0  0  0  0  0  0  0  0
    7.8001   -1.3716    3.3694 H   0  0  0  0  0  0  0  0  0  0  0  0
    3.6907   -2.0982    1.8722 H   0  0  0  0  0  0  0  0  0  0  0  0
    2.0011   -2.4102    0.3688 H   0  0  0  0  0  0  0  0  0  0  0  0
    2.6188   -1.1601   -1.5398 H   0  0  0  0  0  0  0  0  0  0  0  0
    4.4486   -2.4095   -2.5256 H   0  0  0  0  0  0  0  0  0  0  0  0
    5.8009   -4.1092   -2.3829 H   0  0  0  0  0  0  0  0  0  0  0  0
    6.6305   -5.2357   -3.4605 H   0  0  0  0  0  0  0  0  0  0  0  0
    6.8692   -3.5068   -5.1974 H   0  0  0  0  0  0  0  0  0  0  0  0
    7.5566   -2.9181   -3.6773 H   0  0  0  0  0  0  0  0  0  0  0  0
    5.9770   -2.3407   -4.2242 H   0  0  0  0  0  0  0  0  0  0  0  0
   -0.1944   -3.9165   -3.2217 H   0  0  0  0  0  0  0  0  0  0  0  0
   -3.1008    2.1046   -0.8837 H   0  0  0  0  0  0  0  0  0  0  0  0
   -4.7599    3.4366    0.3507 H   0  0  0  0  0  0  0  0  0  0  0  0
   -6.4028    3.6886    4.9810 H   0  0  0  0  0  0  0  0  0  0  0  0
   -5.8962    1.9923    4.8800 H   0  0  0  0  0  0  0  0  0  0  0  0
   -4.0641    3.4354    5.8211 H   0  0  0  0  0  0  0  0  0  0  0  0
   -4.0929    4.4194    4.3509 H   0  0  0  0  0  0  0  0  0  0  0  0
   -3.5724    2.7326    4.2796 H   0  0  0  0  0  0  0  0  0  0  0  0
   -3.2998   -0.8944    2.1691 H   0  0  0  0  0  0  0  0  0  0  0  0
   -4.1299    0.2633   -2.0775 H   0  0  0  0  0  0  0  0  0  0  0  0
   -2.1233   -1.9829   -6.2246 H   0  0  0  0  0  0  0  0  0  0  0  0
   -1.4741   -1.9613   -9.6104 H   0  0  0  0  0  0  0  0  0  0  0  0
   -2.4684   -3.3868   -9.3808 H   0  0  0  0  0  0  0  0  0  0  0  0
   -1.2428   -2.9684   -8.1679 H   0  0  0  0  0  0  0  0  0  0  0  0
   -4.7394   -1.1294  -12.0677 H   0  0  0  0  0  0  0  0  0  0  0  0
   -4.9651    0.2924  -11.0186 H   0  0  0  0  0  0  0  0  0  0  0  0
   -5.9679   -1.1635  -10.7762 H   0  0  0  0  0  0  0  0  0  0  0  0
   -5.7829    0.1085   -8.8404 H   0  0  0  0  0  0  0  0  0  0  0  0
   -7.4478   -1.1593   -7.9715 H   0  0  0  0  0  0  0  0  0  0  0  0
   -9.1940   -1.5873  -10.9463 H   0  0  0  0  0  0  0  0  0  0  0  0
   -8.5077   -2.5196   -9.5993 H   0  0  0  0  0  0  0  0  0  0  0  0
  -10.2553   -2.2426   -9.7147 H   0  0  0  0  0  0  0  0  0  0  0  0
  -12.6017    1.4063   -9.6998 H   0  0  0  0  0  0  0  0  0  0  0  0
  -12.5776    0.8032  -11.3769 H   0  0  0  0  0  0  0  0  0  0  0  0
  -11.5296    2.1656  -10.9084 H   0  0  0  0  0  0  0  0  0  0  0  0
  -10.7756    2.4342   -8.7275 H   0  0  0  0  0  0  0  0  0  0  0  0
  -12.7299    5.9703   -6.4554 H   0  0  0  0  0  0  0  0  0  0  0  0
   -7.4654    4.9945   -5.1093 H   0  0  0  0  0  0  0  0  0  0  0  0
   -7.2563    7.3528   -2.6095 H   0  0  0  0  0  0  0  0  0  0  0  0
   -6.2599    6.5185   -3.8163 H   0  0  0  0  0  0  0  0  0  0  0  0
   -6.7579    8.2051   -4.0586 H   0  0  0  0  0  0  0  0  0  0  0  0
  -10.0159   10.4627   -2.8263 H   0  0  0  0  0  0  0  0  0  0  0  0
  -10.6996   10.0262   -4.4124 H   0  0  0  0  0  0  0  0  0  0  0  0
  -11.2253    9.1596   -2.9419 H   0  0  0  0  0  0  0  0  0  0  0  0
  -11.5112    7.8729   -4.9016 H   0  0  0  0  0  0  0  0  0  0  0  0
  1  2  1  0  0  0  0
  2  3  1  0  0  0  0
  3  4  2  0  0  0  0
  4  5  1  0  0  0  0
  5  6  1  0  0  0  0
  6  7  2  0  0  0  0
  7  8  1  0  0  0  0
  7  9  1  0  0  0  0
  9 10  1  0  0  0  0
 10 11  1  0  0  0  0
  9 12  2  0  0  0  0
  3 13  1  0  0  0  0
 13 14  2  0  0  0  0
 14 15  1  0  0  0  0
 15 16  2  0  0  0  0
 16 17  1  0  0  0  0
 17 18  2  0  0  0  0
 18 19  1  0  0  0  0
 19 20  2  0  0  0  0
 20 21  1  0  0  0  0
 21 22  1  0  0  0  0
 22 23  1  0  0  0  0
 20 24  1  0  0  0  0
 24 25  1  0  0  0  0
 24 26  2  0  0  0  0
 16 27  1  0  0  0  0
 27 28  2  0  0  0  0
 28 29  1  0  0  0  0
 29 30  1  0  0  0  0
 30 31  2  0  0  0  0
 31 32  1  0  0  0  0
 32 33  2  0  0  0  0
 33 34  1  0  0  0  0
 34 35  1  0  0  0  0
 35 36  1  0  0  0  0
 33 37  1  0  0  0  0
 37 38  2  0  0  0  0
 37 39  1  0  0  0  0
 29 40  2  0  0  0  0
 40 41  1  0  0  0  0
 28 42  1  0  0  0  0
 42 43  2  0  0  0  0
 43 44  1  0  0  0  0
 43 45  1  0  0  0  0
 45 46  2  0  0  0  0
 46 47  1  0  0  0  0
 47 48  2  0  0  0  0
 48 49  1  0  0  0  0
 49 50  2  0  0  0  0
 50 51  1  0  0  0  0
 51 52  2  0  0  0  0
 52 53  1  0  0  0  0
 53 54  1  0  0  0  0
 54 55  1  0  0  0  0
 52 56  1  0  0  0  0
 56 57  1  0  0  0  0
 56 58  2  0  0  0  0
 48 59  1  0  0  0  0
 59 60  2  0  0  0  0
 60 61  1  0  0  0  0
 61 62  1  0  0  0  0
 62 63  2  0  0  0  0
 63 64  1  0  0  0  0
 64 65  2  0  0  0  0
 65 66  1  0  0  0  0
 66 67  1  0  0  0  0
 67 68  1  0  0  0  0
 65 69  1  0  0  0  0
 69 70  2  0  0  0  0
 69 71  1  0  0  0  0
 61 72  2  0  0  0  0
 72 73  1  0  0  0  0
 60 74  1  0  0  0  0
 74 75  2  0  0  0  0
 75 76  1  0  0  0  0
 75 77  1  0  0  0  0
 77 78  1  0  0  0  0
 78 79  1  0  0  0  0
 79 80  2  0  0  0  0
 80 81  1  0  0  0  0
 81 82  1  0  0  0  0
 82 83  2  0  0  0  0
 83 84  1  0  0  0  0
 83 85  1  0  0  0  0
 85 86  1  0  0  0  0
 86 87  1  0  0  0  0
 85 88  2  0  0  0  0
 79 89  1  0  0  0  0
 89 90  1  0  0  0  0
 90 91  1  0  0  0  0
 91 92  2  0  0  0  0
 92 93  1  0  0  0  0
 93 94  1  0  0  0  0
 94 95  2  0  0  0  0
 95 96  1  0  0  0  0
 95 97  1  0  0  0  0
 97 98  1  0  0  0  0
 98 99  1  0  0  0  0
 97100  2  0  0  0  0
 91101  1  0  0  0  0
101102  1  0  0  0  0
102103  1  0  0  0  0
103104  2  0  0  0  0
104105  1  0  0  0  0
105106  1  0  0  0  0
106107  2  0  0  0  0
107108  1  0  0  0  0
107109  1  0  0  0  0
109110  1  0  0  0  0
110111  1  0  0  0  0
109112  2  0  0  0  0
  5  1  2  0  0  0  0
 41 13  1  0  0  0  0
 73 45  1  0  0  0  0
 81 77  2  0  0  0  0
 93 89  2  0  0  0  0
105101  2  0  0  0  0
 12  4  1  0  0  0  0
 40 15  1  0  0  0  0
 72 47  1  0  0  0  0
 88 80  1  0  0  0  0
100 92  1  0  0  0  0
112104  1  0  0  0  0
 26 17  1  0  0  0  0
 44 27  1  0  0  0  0
 58 49  1  0  0  0  0
 76 59  1  0  0  0  0
 38 30  1  0  0  0  0
 70 62  1  0  0  0  0
  1113  1  0  0  0  0
  6114  1  0  0  0  0
  8115  1  0  0  0  0
  8116  1  0  0  0  0
  8117  1  0  0  0  0
 11118  1  0  0  0  0
 11119  1  0  0  0  0
 11120  1  0  0  0  0
 12121  1  0  0  0  0
 14122  1  0  0  0  0
 18123  1  0  0  0  0
 19124  1  0  0  0  0
 22125  1  0  0  0  0
 22126  1  0  0  0  0
 23127  1  0  0  0  0
 23128  1  0  0  0  0
 23129  1  0  0  0  0
 26130  1  0  0  0  0
 31131  1  0  0  0  0
 32132  1  0  0  0  0
 35133  1  0  0  0  0
 35134  1  0  0  0  0
 36135  1  0  0  0  0
 36136  1  0  0  0  0
 36137  1  0  0  0  0
 38138  1  0  0  0  0
 42139  1  0  0  0  0
 46140  1  0  0  0  0
 50141  1  0  0  0  0
 51142  1  0  0  0  0
 54143  1  0  0  0  0
 54144  1  0  0  0  0
 55145  1  0  0  0  0
 55146  1  0  0  0  0
 55147  1  0  0  0  0
 58148  1  0  0  0  0
 63149  1  0  0  0  0
 64150  1  0  0  0  0
 67151  1  0  0  0  0
 67152  1  0  0  0  0
 68153  1  0  0  0  0
 68154  1  0  0  0  0
 68155  1  0  0  0  0
 70156  1  0  0  0  0
 74157  1  0  0  0  0
 82158  1  0  0  0  0
 84159  1  0  0  0  0
 84160  1  0  0  0  0
 84161  1  0  0  0  0
 87162  1  0  0  0  0
 87163  1  0  0  0  0
 87164  1  0  0  0  0
 88165  1  0  0  0  0
 94166  1  0  0  0  0
 96167  1  0  0  0  0
 96168  1  0  0  0  0
 96169  1  0  0  0  0
 99170  1  0  0  0  0
 99171  1  0  0  0  0
 99172  1  0  0  0  0
100173  1  0  0  0  0
103174  1  0  0  0  0
106175  1  0  0  0  0
108176  1  0  0  0  0
108177  1  0  0  0  0
108178  1  0  0  0  0
111179  1  0  0  0  0
111180  1  0  0  0  0
111181  1  0  0  0  0
112182  1  0  0  0  0
M  END
