
  xtb     03032201143D
 energy: -191.092164351037 gnorm: 0.000991770499 xtb: 6.4.1 (unknown)
 97108  0     0  0            999 V2000
   -2.4079   -4.3497    9.3622 C   0  0  0  0  0  0  0  0  0  0  0  0
   -3.6143   -3.9127    8.2485 S   0  0  0  0  0  0  0  0  0  0  0  0
   -2.4844   -3.1274    7.1808 C   0  0  0  0  0  0  0  0  0  0  0  0
   -1.1853   -3.2179    7.7137 C   0  0  0  0  0  0  0  0  0  0  0  0
   -1.1580   -3.9233    8.9679 C   0  0  0  0  0  0  0  0  0  0  0  0
    0.0600   -4.1188    9.6540 C   0  0  0  0  0  0  0  0  0  0  0  0
    1.2206   -3.6254    9.1190 C   0  0  0  0  0  0  0  0  0  0  0  0
    2.4545   -3.8207    9.7839 C   0  0  0  0  0  0  0  0  0  0  0  0
    3.4443   -3.9914   10.3343 N   0  0  0  0  0  0  0  0  0  0  0  0
    1.1953   -2.8985    7.8861 C   0  0  0  0  0  0  0  0  0  0  0  0
    2.4034   -2.3906    7.3563 C   0  0  0  0  0  0  0  0  0  0  0  0
    3.3700   -1.9749    6.9027 N   0  0  0  0  0  0  0  0  0  0  0  0
    0.0168   -2.6965    7.2065 C   0  0  0  0  0  0  0  0  0  0  0  0
   -2.9058   -2.5820    5.9446 C   0  0  0  0  0  0  0  0  0  0  0  0
   -1.7720   -2.3344    4.6511 S   0  0  0  0  0  0  0  0  0  0  0  0
   -2.9906   -1.8235    3.5304 C   0  0  0  0  0  0  0  0  0  0  0  0
   -4.2440   -1.7844    4.1563 C   0  0  0  0  0  0  0  0  0  0  0  0
   -4.2006   -2.2259    5.5211 C   0  0  0  0  0  0  0  0  0  0  0  0
   -5.3788   -2.1858    6.2870 C   0  0  0  0  0  0  0  0  0  0  0  0
   -6.5481   -1.7206    5.7330 C   0  0  0  0  0  0  0  0  0  0  0  0
   -7.7256   -1.6763    6.5151 C   0  0  0  0  0  0  0  0  0  0  0  0
   -8.6680   -1.6509    7.1657 N   0  0  0  0  0  0  0  0  0  0  0  0
   -6.5776   -1.2455    4.3872 C   0  0  0  0  0  0  0  0  0  0  0  0
   -7.7778   -0.7185    3.8561 C   0  0  0  0  0  0  0  0  0  0  0  0
   -8.7390   -0.2837    3.4101 N   0  0  0  0  0  0  0  0  0  0  0  0
   -5.4381   -1.2702    3.6206 C   0  0  0  0  0  0  0  0  0  0  0  0
   -2.6227   -1.4716    2.2095 C   0  0  0  0  0  0  0  0  0  0  0  0
   -1.1064   -0.6741    1.9191 S   0  0  0  0  0  0  0  0  0  0  0  0
   -1.3801   -0.5648    0.2072 C   0  0  0  0  0  0  0  0  0  0  0  0
   -2.6238   -1.1248   -0.1278 C   0  0  0  0  0  0  0  0  0  0  0  0
   -3.3077   -1.6789    1.0044 C   0  0  0  0  0  0  0  0  0  0  0  0
   -4.4950   -2.4081    0.8066 C   0  0  0  0  0  0  0  0  0  0  0  0
   -5.0517   -2.4775   -0.4477 C   0  0  0  0  0  0  0  0  0  0  0  0
   -6.2282   -3.2336   -0.6579 C   0  0  0  0  0  0  0  0  0  0  0  0
   -7.1757   -3.8593   -0.8088 N   0  0  0  0  0  0  0  0  0  0  0  0
   -4.4532   -1.7828   -1.5440 C   0  0  0  0  0  0  0  0  0  0  0  0
   -5.0793   -1.7999   -2.8113 C   0  0  0  0  0  0  0  0  0  0  0  0
   -5.5593   -1.8119   -3.8515 N   0  0  0  0  0  0  0  0  0  0  0  0
   -3.2571   -1.1239   -1.3826 C   0  0  0  0  0  0  0  0  0  0  0  0
   -0.4209    0.0693   -0.6120 C   0  0  0  0  0  0  0  0  0  0  0  0
    0.4985    1.3829    0.0505 S   0  0  0  0  0  0  0  0  0  0  0  0
    1.3175    1.7047   -1.4526 C   0  0  0  0  0  0  0  0  0  0  0  0
    0.9238    0.7551   -2.4254 C   0  0  0  0  0  0  0  0  0  0  0  0
   -0.0377   -0.1789   -1.9382 C   0  0  0  0  0  0  0  0  0  0  0  0
   -0.4203   -1.2656   -2.7507 C   0  0  0  0  0  0  0  0  0  0  0  0
    0.0456   -1.3876   -4.0278 C   0  0  0  0  0  0  0  0  0  0  0  0
   -0.3512   -2.5192   -4.9148 C   0  0  0  0  0  0  0  0  0  0  0  0
    0.9585   -0.4125   -4.5373 C   0  0  0  0  0  0  0  0  0  0  0  0
    1.3488   -0.6150   -5.8105 O   0  0  0  0  0  0  0  0  0  0  0  0
    2.2383    0.2968   -6.4154 C   0  0  0  0  0  0  0  0  0  0  0  0
    1.4035    0.6160   -3.7375 C   0  0  0  0  0  0  0  0  0  0  0  0
    2.1692    2.8147   -1.5849 C   0  0  0  0  0  0  0  0  0  0  0  0
    2.5818    3.4265   -3.1570 S   0  0  0  0  0  0  0  0  0  0  0  0
    3.5058    4.7661   -2.5446 C   0  0  0  0  0  0  0  0  0  0  0  0
    3.5127    4.7270   -1.1380 C   0  0  0  0  0  0  0  0  0  0  0  0
    2.7614    3.6316   -0.5950 C   0  0  0  0  0  0  0  0  0  0  0  0
    2.7150    3.4519    0.7948 C   0  0  0  0  0  0  0  0  0  0  0  0
    3.3661    4.3301    1.6316 C   0  0  0  0  0  0  0  0  0  0  0  0
    3.2948    4.1509    3.0319 C   0  0  0  0  0  0  0  0  0  0  0  0
    3.2129    3.9967    4.1642 N   0  0  0  0  0  0  0  0  0  0  0  0
    4.1188    5.4122    1.0917 C   0  0  0  0  0  0  0  0  0  0  0  0
    4.8055    6.2929    1.9594 C   0  0  0  0  0  0  0  0  0  0  0  0
    5.3686    7.0186    2.6440 N   0  0  0  0  0  0  0  0  0  0  0  0
    4.1950    5.5947   -0.2691 C   0  0  0  0  0  0  0  0  0  0  0  0
    4.0613    5.7136   -3.4325 C   0  0  0  0  0  0  0  0  0  0  0  0
    4.4978    7.3158   -2.9058 S   0  0  0  0  0  0  0  0  0  0  0  0
    4.9334    7.8189   -4.4726 C   0  0  0  0  0  0  0  0  0  0  0  0
    4.7688    6.8177   -5.4042 C   0  0  0  0  0  0  0  0  0  0  0  0
    4.2734    5.5988   -4.8202 C   0  0  0  0  0  0  0  0  0  0  0  0
    4.1048    4.4781   -5.6459 C   0  0  0  0  0  0  0  0  0  0  0  0
    4.3608    4.5650   -6.9955 C   0  0  0  0  0  0  0  0  0  0  0  0
    4.1568    3.4178   -7.7919 C   0  0  0  0  0  0  0  0  0  0  0  0
    3.9610    2.4542   -8.3820 N   0  0  0  0  0  0  0  0  0  0  0  0
    4.8162    5.7898   -7.5784 C   0  0  0  0  0  0  0  0  0  0  0  0
    5.0584    5.8439   -8.9711 C   0  0  0  0  0  0  0  0  0  0  0  0
    5.2541    5.8981  -10.0984 N   0  0  0  0  0  0  0  0  0  0  0  0
    5.0280    6.8910   -6.7907 C   0  0  0  0  0  0  0  0  0  0  0  0
   -2.6685   -4.8928   10.2483 H   0  0  0  0  0  0  0  0  0  0  0  0
    0.0672   -4.6539   10.5913 H   0  0  0  0  0  0  0  0  0  0  0  0
    0.0366   -2.1256    6.2919 H   0  0  0  0  0  0  0  0  0  0  0  0
   -5.3783   -2.4884    7.3213 H   0  0  0  0  0  0  0  0  0  0  0  0
   -5.4559   -0.8641    2.6210 H   0  0  0  0  0  0  0  0  0  0  0  0
   -4.9581   -2.9306    1.6296 H   0  0  0  0  0  0  0  0  0  0  0  0
   -2.8151   -0.6017   -2.2165 H   0  0  0  0  0  0  0  0  0  0  0  0
   -1.0661   -2.0282   -2.3442 H   0  0  0  0  0  0  0  0  0  0  0  0
    0.5326   -3.0598   -5.2491 H   0  0  0  0  0  0  0  0  0  0  0  0
   -0.8466   -2.1341   -5.8046 H   0  0  0  0  0  0  0  0  0  0  0  0
   -1.0208   -3.2029   -4.4010 H   0  0  0  0  0  0  0  0  0  0  0  0
    2.3649   -0.0430   -7.4407 H   0  0  0  0  0  0  0  0  0  0  0  0
    3.2119    0.2989   -5.9171 H   0  0  0  0  0  0  0  0  0  0  0  0
    1.8292    1.3110   -6.4238 H   0  0  0  0  0  0  0  0  0  0  0  0
    2.1460    1.2978   -4.1101 H   0  0  0  0  0  0  0  0  0  0  0  0
    2.1858    2.6196    1.2291 H   0  0  0  0  0  0  0  0  0  0  0  0
    4.7988    6.3995   -0.6553 H   0  0  0  0  0  0  0  0  0  0  0  0
    5.2882    8.8169   -4.6330 H   0  0  0  0  0  0  0  0  0  0  0  0
    3.7893    3.5302   -5.2416 H   0  0  0  0  0  0  0  0  0  0  0  0
    5.3908    7.8130   -7.2188 H   0  0  0  0  0  0  0  0  0  0  0  0
  1  2  1  0  0  0  0
  2  3  1  0  0  0  0
  3  4  2  0  0  0  0
  4  5  1  0  0  0  0
  5  6  1  0  0  0  0
  6  7  2  0  0  0  0
  7  8  1  0  0  0  0
  8  9  3  0  0  0  0
  7 10  1  0  0  0  0
 10 11  1  0  0  0  0
 11 12  3  0  0  0  0
 10 13  2  0  0  0  0
  3 14  1  0  0  0  0
 14 15  1  0  0  0  0
 15 16  1  0  0  0  0
 16 17  2  0  0  0  0
 17 18  1  0  0  0  0
 18 19  1  0  0  0  0
 19 20  2  0  0  0  0
 20 21  1  0  0  0  0
 21 22  3  0  0  0  0
 20 23  1  0  0  0  0
 23 24  1  0  0  0  0
 24 25  3  0  0  0  0
 23 26  2  0  0  0  0
 16 27  1  0  0  0  0
 27 28  1  0  0  0  0
 28 29  1  0  0  0  0
 29 30  2  0  0  0  0
 30 31  1  0  0  0  0
 31 32  1  0  0  0  0
 32 33  2  0  0  0  0
 33 34  1  0  0  0  0
 34 35  3  0  0  0  0
 33 36  1  0  0  0  0
 36 37  1  0  0  0  0
 37 38  3  0  0  0  0
 36 39  2  0  0  0  0
 29 40  1  0  0  0  0
 40 41  1  0  0  0  0
 41 42  1  0  0  0  0
 42 43  2  0  0  0  0
 43 44  1  0  0  0  0
 44 45  1  0  0  0  0
 45 46  2  0  0  0  0
 46 47  1  0  0  0  0
 46 48  1  0  0  0  0
 48 49  1  0  0  0  0
 49 50  1  0  0  0  0
 48 51  2  0  0  0  0
 42 52  1  0  0  0  0
 52 53  1  0  0  0  0
 53 54  1  0  0  0  0
 54 55  2  0  0  0  0
 55 56  1  0  0  0  0
 56 57  1  0  0  0  0
 57 58  2  0  0  0  0
 58 59  1  0  0  0  0
 59 60  3  0  0  0  0
 58 61  1  0  0  0  0
 61 62  1  0  0  0  0
 62 63  3  0  0  0  0
 61 64  2  0  0  0  0
 54 65  1  0  0  0  0
 65 66  1  0  0  0  0
 66 67  1  0  0  0  0
 67 68  2  0  0  0  0
 68 69  1  0  0  0  0
 69 70  1  0  0  0  0
 70 71  2  0  0  0  0
 71 72  1  0  0  0  0
 72 73  3  0  0  0  0
 71 74  1  0  0  0  0
 74 75  1  0  0  0  0
 75 76  3  0  0  0  0
 74 77  2  0  0  0  0
  5  1  2  0  0  0  0
 18 14  2  0  0  0  0
 31 27  2  0  0  0  0
 44 40  2  0  0  0  0
 56 52  2  0  0  0  0
 69 65  2  0  0  0  0
 13  4  1  0  0  0  0
 26 17  1  0  0  0  0
 39 30  1  0  0  0  0
 51 43  1  0  0  0  0
 64 55  1  0  0  0  0
 77 68  1  0  0  0  0
  1 78  1  0  0  0  0
  6 79  1  0  0  0  0
 13 80  1  0  0  0  0
 19 81  1  0  0  0  0
 26 82  1  0  0  0  0
 32 83  1  0  0  0  0
 39 84  1  0  0  0  0
 45 85  1  0  0  0  0
 47 86  1  0  0  0  0
 47 87  1  0  0  0  0
 47 88  1  0  0  0  0
 50 89  1  0  0  0  0
 50 90  1  0  0  0  0
 50 91  1  0  0  0  0
 51 92  1  0  0  0  0
 57 93  1  0  0  0  0
 64 94  1  0  0  0  0
 67 95  1  0  0  0  0
 70 96  1  0  0  0  0
 77 97  1  0  0  0  0
M  END
