
  xtb     03042211533D
 energy: -168.063804566066 gnorm: 0.000299772452 xtb: 6.4.1 (unknown)
 98109  0     0  0            999 V2000
    5.6631    1.1857    7.5879 C   0  0  0  0  0  0  0  0  0  0  0  0
    6.4066    2.2224    7.0359 C   0  0  0  0  0  0  0  0  0  0  0  0
    7.4402    2.9980    7.5945 C   0  0  0  0  0  0  0  0  0  0  0  0
    7.9311    4.0631    6.8834 C   0  0  0  0  0  0  0  0  0  0  0  0
    7.3969    4.4001    5.6304 C   0  0  0  0  0  0  0  0  0  0  0  0
    6.3990    3.6453    5.0442 C   0  0  0  0  0  0  0  0  0  0  0  0
    5.9263    2.5167    5.7045 C   0  0  0  0  0  0  0  0  0  0  0  0
    4.8966    1.5779    5.3956 C   0  0  0  0  0  0  0  0  0  0  0  0
    4.6550    0.7864    6.6404 C   0  0  0  0  0  0  0  0  0  0  0  0
    3.7637   -0.0500    6.7454 O   0  0  0  0  0  0  0  0  0  0  0  0
    4.1646    1.2689    4.2846 C   0  0  0  0  0  0  0  0  0  0  0  0
    2.7264    0.2929    4.4940 S   0  0  0  0  0  0  0  0  0  0  0  0
    2.2015    0.5731    2.8291 C   0  0  0  0  0  0  0  0  0  0  0  0
    3.2743    1.1911    2.0846 C   0  0  0  0  0  0  0  0  0  0  0  0
    4.3640    1.5631    2.8954 C   0  0  0  0  0  0  0  0  0  0  0  0
    5.5444    2.0166    2.3079 C   0  0  0  0  0  0  0  0  0  0  0  0
    5.6391    2.1635    0.9416 C   0  0  0  0  0  0  0  0  0  0  0  0
    6.8913    2.6501    0.2864 C   0  0  0  0  0  0  0  0  0  0  0  0
    4.5331    1.8186    0.1339 C   0  0  0  0  0  0  0  0  0  0  0  0
    4.7116    1.9921   -1.1990 O   0  0  0  0  0  0  0  0  0  0  0  0
    3.6409    1.7021   -2.0674 C   0  0  0  0  0  0  0  0  0  0  0  0
    3.3779    1.3043    0.7022 C   0  0  0  0  0  0  0  0  0  0  0  0
    0.9525    0.2226    2.3999 C   0  0  0  0  0  0  0  0  0  0  0  0
   -0.0041   -0.6638    3.0295 C   0  0  0  0  0  0  0  0  0  0  0  0
    0.0522   -1.3239    4.2478 C   0  0  0  0  0  0  0  0  0  0  0  0
   -1.0108   -2.1253    4.6307 C   0  0  0  0  0  0  0  0  0  0  0  0
   -2.1254   -2.2531    3.8168 C   0  0  0  0  0  0  0  0  0  0  0  0
   -2.1889   -1.6122    2.5892 C   0  0  0  0  0  0  0  0  0  0  0  0
   -1.1198   -0.8337    2.1707 C   0  0  0  0  0  0  0  0  0  0  0  0
   -0.9240   -0.0589    0.9503 C   0  0  0  0  0  0  0  0  0  0  0  0
    0.2657    0.7865    1.2125 C   0  0  0  0  0  0  0  0  0  0  0  0
    0.5794    1.8301    0.6674 O   0  0  0  0  0  0  0  0  0  0  0  0
   -1.6096   -0.2035   -0.2265 C   0  0  0  0  0  0  0  0  0  0  0  0
   -2.8216   -1.4977   -0.3594 S   0  0  0  0  0  0  0  0  0  0  0  0
   -3.2042   -1.1135   -2.0151 C   0  0  0  0  0  0  0  0  0  0  0  0
   -2.3059   -0.1063   -2.5053 C   0  0  0  0  0  0  0  0  0  0  0  0
   -1.4663    0.4411   -1.5144 C   0  0  0  0  0  0  0  0  0  0  0  0
   -0.6138    1.4813   -1.8886 C   0  0  0  0  0  0  0  0  0  0  0  0
   -0.5226    1.9020   -3.1990 C   0  0  0  0  0  0  0  0  0  0  0  0
    0.3804    3.0266   -3.5941 C   0  0  0  0  0  0  0  0  0  0  0  0
   -1.2756    1.2503   -4.1973 C   0  0  0  0  0  0  0  0  0  0  0  0
   -1.0673    1.6781   -5.4693 O   0  0  0  0  0  0  0  0  0  0  0  0
   -1.8090    1.0903   -6.5112 C   0  0  0  0  0  0  0  0  0  0  0  0
   -2.1695    0.2541   -3.8425 C   0  0  0  0  0  0  0  0  0  0  0  0
   -4.2328   -1.7763   -2.6239 C   0  0  0  0  0  0  0  0  0  0  0  0
   -5.0238   -1.5574   -3.8124 C   0  0  0  0  0  0  0  0  0  0  0  0
   -5.2495   -0.4013   -4.5442 C   0  0  0  0  0  0  0  0  0  0  0  0
   -6.1773   -0.4298   -5.5734 C   0  0  0  0  0  0  0  0  0  0  0  0
   -6.9040   -1.5802   -5.8437 C   0  0  0  0  0  0  0  0  0  0  0  0
   -6.7369   -2.7234   -5.0778 C   0  0  0  0  0  0  0  0  0  0  0  0
   -5.7855   -2.7252   -4.0691 C   0  0  0  0  0  0  0  0  0  0  0  0
   -5.5236   -3.7171   -3.0384 C   0  0  0  0  0  0  0  0  0  0  0  0
   -4.7094   -3.0155   -2.0044 C   0  0  0  0  0  0  0  0  0  0  0  0
   -4.3702   -3.3857   -0.8927 O   0  0  0  0  0  0  0  0  0  0  0  0
   -5.7647   -5.0566   -3.0721 C   0  0  0  0  0  0  0  0  0  0  0  0
   -5.7042   -6.0323   -2.0081 C   0  0  0  0  0  0  0  0  0  0  0  0
   -5.6959   -5.8983   -0.6298 C   0  0  0  0  0  0  0  0  0  0  0  0
   -5.6835   -7.0410    0.1586 C   0  0  0  0  0  0  0  0  0  0  0  0
   -5.7017   -8.3190   -0.4051 C   0  0  0  0  0  0  0  0  0  0  0  0
   -5.7587   -8.4851   -1.7700 C   0  0  0  0  0  0  0  0  0  0  0  0
   -5.7795   -7.3452   -2.5884 C   0  0  0  0  0  0  0  0  0  0  0  0
   -5.9130   -7.2383   -3.9713 C   0  0  0  0  0  0  0  0  0  0  0  0
   -5.9581   -5.8517   -4.3511 C   0  0  0  0  0  0  0  0  0  0  0  0
   -6.0388   -5.4046   -5.4848 O   0  0  0  0  0  0  0  0  0  0  0  0
    5.7950    0.7435    8.5572 H   0  0  0  0  0  0  0  0  0  0  0  0
    7.8162    2.7589    8.5777 H   0  0  0  0  0  0  0  0  0  0  0  0
    8.7223    4.6716    7.2961 H   0  0  0  0  0  0  0  0  0  0  0  0
    7.7744    5.2722    5.1171 H   0  0  0  0  0  0  0  0  0  0  0  0
    5.9787    3.9482    4.0977 H   0  0  0  0  0  0  0  0  0  0  0  0
    6.4088    2.2086    2.9226 H   0  0  0  0  0  0  0  0  0  0  0  0
    6.6884    3.5636   -0.2706 H   0  0  0  0  0  0  0  0  0  0  0  0
    7.6659    2.8437    1.0233 H   0  0  0  0  0  0  0  0  0  0  0  0
    7.2506    1.9111   -0.4279 H   0  0  0  0  0  0  0  0  0  0  0  0
    3.9743    2.0128   -3.0564 H   0  0  0  0  0  0  0  0  0  0  0  0
    2.7410    2.2577   -1.7921 H   0  0  0  0  0  0  0  0  0  0  0  0
    3.4141    0.6313   -2.0823 H   0  0  0  0  0  0  0  0  0  0  0  0
    2.5646    0.9809    0.0795 H   0  0  0  0  0  0  0  0  0  0  0  0
    0.9007   -1.2188    4.9030 H   0  0  0  0  0  0  0  0  0  0  0  0
   -0.9738   -2.6399    5.5789 H   0  0  0  0  0  0  0  0  0  0  0  0
   -2.9599   -2.8571    4.1401 H   0  0  0  0  0  0  0  0  0  0  0  0
   -3.0808   -1.7140    1.9954 H   0  0  0  0  0  0  0  0  0  0  0  0
   -0.0183    1.9773   -1.1424 H   0  0  0  0  0  0  0  0  0  0  0  0
    0.7777    3.5283   -2.7166 H   0  0  0  0  0  0  0  0  0  0  0  0
   -0.1659    3.7447   -4.2027 H   0  0  0  0  0  0  0  0  0  0  0  0
    1.2051    2.6512   -4.1991 H   0  0  0  0  0  0  0  0  0  0  0  0
   -1.4806    1.5885   -7.4219 H   0  0  0  0  0  0  0  0  0  0  0  0
   -1.6089    0.0176   -6.5945 H   0  0  0  0  0  0  0  0  0  0  0  0
   -2.8840    1.2480   -6.3800 H   0  0  0  0  0  0  0  0  0  0  0  0
   -2.7422   -0.2728   -4.5858 H   0  0  0  0  0  0  0  0  0  0  0  0
   -4.7454    0.5195   -4.2927 H   0  0  0  0  0  0  0  0  0  0  0  0
   -6.3524    0.4632   -6.1562 H   0  0  0  0  0  0  0  0  0  0  0  0
   -7.6314   -1.5763   -6.6412 H   0  0  0  0  0  0  0  0  0  0  0  0
   -7.3465   -3.5908   -5.2640 H   0  0  0  0  0  0  0  0  0  0  0  0
   -5.6797   -4.9268   -0.1667 H   0  0  0  0  0  0  0  0  0  0  0  0
   -5.6575   -6.9397    1.2331 H   0  0  0  0  0  0  0  0  0  0  0  0
   -5.6827   -9.1833    0.2426 H   0  0  0  0  0  0  0  0  0  0  0  0
   -5.7997   -9.4676   -2.2155 H   0  0  0  0  0  0  0  0  0  0  0  0
   -5.9562   -8.0480   -4.6761 H   0  0  0  0  0  0  0  0  0  0  0  0
  1  2  2  0  0  0  0
  2  3  1  0  0  0  0
  3  4  2  0  0  0  0
  4  5  1  0  0  0  0
  5  6  2  0  0  0  0
  6  7  1  0  0  0  0
  7  8  2  0  0  0  0
  8  9  1  0  0  0  0
  9 10  2  0  0  0  0
  8 11  1  0  0  0  0
 11 12  1  0  0  0  0
 12 13  1  0  0  0  0
 13 14  2  0  0  0  0
 14 15  1  0  0  0  0
 15 16  1  0  0  0  0
 16 17  2  0  0  0  0
 17 18  1  0  0  0  0
 17 19  1  0  0  0  0
 19 20  1  0  0  0  0
 20 21  1  0  0  0  0
 19 22  2  0  0  0  0
 13 23  1  0  0  0  0
 23 24  2  0  0  0  0
 24 25  1  0  0  0  0
 25 26  2  0  0  0  0
 26 27  1  0  0  0  0
 27 28  2  0  0  0  0
 28 29  1  0  0  0  0
 29 30  2  0  0  0  0
 30 31  1  0  0  0  0
 31 32  2  0  0  0  0
 30 33  1  0  0  0  0
 33 34  1  0  0  0  0
 34 35  1  0  0  0  0
 35 36  2  0  0  0  0
 36 37  1  0  0  0  0
 37 38  1  0  0  0  0
 38 39  2  0  0  0  0
 39 40  1  0  0  0  0
 39 41  1  0  0  0  0
 41 42  1  0  0  0  0
 42 43  1  0  0  0  0
 41 44  2  0  0  0  0
 35 45  1  0  0  0  0
 45 46  2  0  0  0  0
 46 47  1  0  0  0  0
 47 48  2  0  0  0  0
 48 49  1  0  0  0  0
 49 50  2  0  0  0  0
 50 51  1  0  0  0  0
 51 52  2  0  0  0  0
 52 53  1  0  0  0  0
 53 54  2  0  0  0  0
 52 55  1  0  0  0  0
 55 56  2  0  0  0  0
 56 57  1  0  0  0  0
 57 58  2  0  0  0  0
 58 59  1  0  0  0  0
 59 60  2  0  0  0  0
 60 61  1  0  0  0  0
 61 62  2  0  0  0  0
 62 63  1  0  0  0  0
 63 64  2  0  0  0  0
  9  1  1  0  0  0  0
 15 11  2  0  0  0  0
 31 23  1  0  0  0  0
 37 33  2  0  0  0  0
 53 45  1  0  0  0  0
 63 55  1  0  0  0  0
  7  2  1  0  0  0  0
 22 14  1  0  0  0  0
 29 24  1  0  0  0  0
 44 36  1  0  0  0  0
 51 46  1  0  0  0  0
 61 56  1  0  0  0  0
  1 65  1  0  0  0  0
  3 66  1  0  0  0  0
  4 67  1  0  0  0  0
  5 68  1  0  0  0  0
  6 69  1  0  0  0  0
 16 70  1  0  0  0  0
 18 71  1  0  0  0  0
 18 72  1  0  0  0  0
 18 73  1  0  0  0  0
 21 74  1  0  0  0  0
 21 75  1  0  0  0  0
 21 76  1  0  0  0  0
 22 77  1  0  0  0  0
 25 78  1  0  0  0  0
 26 79  1  0  0  0  0
 27 80  1  0  0  0  0
 28 81  1  0  0  0  0
 38 82  1  0  0  0  0
 40 83  1  0  0  0  0
 40 84  1  0  0  0  0
 40 85  1  0  0  0  0
 43 86  1  0  0  0  0
 43 87  1  0  0  0  0
 43 88  1  0  0  0  0
 44 89  1  0  0  0  0
 47 90  1  0  0  0  0
 48 91  1  0  0  0  0
 49 92  1  0  0  0  0
 50 93  1  0  0  0  0
 57 94  1  0  0  0  0
 58 95  1  0  0  0  0
 59 96  1  0  0  0  0
 60 97  1  0  0  0  0
 62 98  1  0  0  0  0
M  END
