
  xtb     03032205283D
 energy: -404.633952038096 gnorm: 0.000194046463 xtb: 6.4.1 (unknown)
210233  0     0  0            999 V2000
    0.2246    3.1551   17.4785 C   0  0  0  0  0  0  0  0  0  0  0  0
   -0.0673    2.1952   16.1023 S   0  0  0  0  0  0  0  0  0  0  0  0
   -0.6218    3.5583   15.1707 C   0  0  0  0  0  0  0  0  0  0  0  0
   -0.5703    4.7233   15.9389 C   0  0  0  0  0  0  0  0  0  0  0  0
   -0.0800    4.4800   17.2643 C   0  0  0  0  0  0  0  0  0  0  0  0
    0.0434    5.5582   18.1743 C   0  0  0  0  0  0  0  0  0  0  0  0
   -0.2999    6.8199   17.8018 C   0  0  0  0  0  0  0  0  0  0  0  0
   -0.1807    7.9877   18.7270 C   0  0  0  0  0  0  0  0  0  0  0  0
   -0.7962    7.0563   16.4757 C   0  0  0  0  0  0  0  0  0  0  0  0
   -1.1117    8.3533   16.2199 O   0  0  0  0  0  0  0  0  0  0  0  0
   -1.6030    8.6870   14.9446 C   0  0  0  0  0  0  0  0  0  0  0  0
   -0.9277    6.0367   15.5716 C   0  0  0  0  0  0  0  0  0  0  0  0
   -1.0130    3.3419   13.8233 C   0  0  0  0  0  0  0  0  0  0  0  0
   -1.0149    2.1407   13.1661 C   0  0  0  0  0  0  0  0  0  0  0  0
   -1.4142    2.2190   11.8134 C   0  0  0  0  0  0  0  0  0  0  0  0
   -1.4720    1.1858   10.8598 C   0  0  0  0  0  0  0  0  0  0  0  0
   -1.0177   -0.1582   11.1705 C   0  0  0  0  0  0  0  0  0  0  0  0
   -2.0171   -1.5453   10.8544 S   0  0  0  0  0  0  0  0  0  0  0  0
   -0.8121   -2.6437   11.4355 C   0  0  0  0  0  0  0  0  0  0  0  0
   -1.0340   -4.1151   11.3923 C   0  0  0  0  0  0  0  0  0  0  0  0
   -0.9269   -4.6411    9.9594 C   0  0  0  0  0  0  0  0  0  0  0  0
    0.2958   -1.9607   11.8391 C   0  0  0  0  0  0  0  0  0  0  0  0
    1.7087   -2.7066   12.4666 Cl  0  0  0  0  0  0  0  0  0  0  0  0
    0.1820   -0.5516   11.6953 C   0  0  0  0  0  0  0  0  0  0  0  0
    1.4713    0.5189   12.0671 Cl  0  0  0  0  0  0  0  0  0  0  0  0
   -1.9587    1.5149    9.6017 C   0  0  0  0  0  0  0  0  0  0  0  0
   -2.3557    2.8277    9.2534 C   0  0  0  0  0  0  0  0  0  0  0  0
   -2.2280    3.8774   10.1823 C   0  0  0  0  0  0  0  0  0  0  0  0
   -2.5432    5.2407    9.7901 C   0  0  0  0  0  0  0  0  0  0  0  0
   -3.6474    6.2278   10.7010 S   0  0  0  0  0  0  0  0  0  0  0  0
   -3.5219    7.5413    9.5812 C   0  0  0  0  0  0  0  0  0  0  0  0
   -4.3347    8.7792    9.7361 C   0  0  0  0  0  0  0  0  0  0  0  0
   -5.6331    8.6796    8.9309 C   0  0  0  0  0  0  0  0  0  0  0  0
   -2.6667    7.2205    8.5697 C   0  0  0  0  0  0  0  0  0  0  0  0
   -2.1035    5.9226    8.6880 C   0  0  0  0  0  0  0  0  0  0  0  0
   -0.9275    5.3305    7.5832 Cl  0  0  0  0  0  0  0  0  0  0  0  0
   -2.2956    8.2698    7.2650 Cl  0  0  0  0  0  0  0  0  0  0  0  0
   -1.7781    3.5388   11.4472 C   0  0  0  0  0  0  0  0  0  0  0  0
   -1.5470    4.6438   12.7703 S   0  0  0  0  0  0  0  0  0  0  0  0
   -2.8283    2.9031    7.9247 C   0  0  0  0  0  0  0  0  0  0  0  0
   -2.7339    1.7235    7.2440 C   0  0  0  0  0  0  0  0  0  0  0  0
   -2.1133    0.4301    8.2473 S   0  0  0  0  0  0  0  0  0  0  0  0
   -3.0135    1.5381    5.8585 C   0  0  0  0  0  0  0  0  0  0  0  0
   -3.2635    2.5345    4.9585 C   0  0  0  0  0  0  0  0  0  0  0  0
   -3.4224    2.0747    3.6328 C   0  0  0  0  0  0  0  0  0  0  0  0
   -3.6559    2.8495    2.4785 C   0  0  0  0  0  0  0  0  0  0  0  0
   -3.8934    4.2764    2.6024 C   0  0  0  0  0  0  0  0  0  0  0  0
   -2.9765    5.4411    1.6927 S   0  0  0  0  0  0  0  0  0  0  0  0
   -3.7470    6.7774    2.4764 C   0  0  0  0  0  0  0  0  0  0  0  0
   -3.3421    8.1821    2.1950 C   0  0  0  0  0  0  0  0  0  0  0  0
   -2.2277    8.6256    3.1464 C   0  0  0  0  0  0  0  0  0  0  0  0
   -4.6631    6.3320    3.3823 C   0  0  0  0  0  0  0  0  0  0  0  0
   -5.6174    7.3670    4.3630 Cl  0  0  0  0  0  0  0  0  0  0  0  0
   -4.7554    4.9172    3.4514 C   0  0  0  0  0  0  0  0  0  0  0  0
   -5.9021    4.1198    4.4520 Cl  0  0  0  0  0  0  0  0  0  0  0  0
   -3.5887    2.1890    1.2623 C   0  0  0  0  0  0  0  0  0  0  0  0
   -3.3670    0.7928    1.1645 C   0  0  0  0  0  0  0  0  0  0  0  0
   -3.2425    0.0021    2.3234 C   0  0  0  0  0  0  0  0  0  0  0  0
   -3.0715   -1.4353    2.2188 C   0  0  0  0  0  0  0  0  0  0  0  0
   -1.7770   -2.2600    3.0370 S   0  0  0  0  0  0  0  0  0  0  0  0
   -2.2280   -3.7929    2.3710 C   0  0  0  0  0  0  0  0  0  0  0  0
   -1.4900   -5.0343    2.7326 C   0  0  0  0  0  0  0  0  0  0  0  0
   -1.8795   -5.5118    4.1333 C   0  0  0  0  0  0  0  0  0  0  0  0
   -3.3288   -3.6610    1.5781 C   0  0  0  0  0  0  0  0  0  0  0  0
   -3.8072   -2.3265    1.4855 C   0  0  0  0  0  0  0  0  0  0  0  0
   -5.2210   -1.9173    0.6023 Cl  0  0  0  0  0  0  0  0  0  0  0  0
   -4.0738   -4.9641    0.7454 Cl  0  0  0  0  0  0  0  0  0  0  0  0
   -3.2404    0.6735    3.5370 C   0  0  0  0  0  0  0  0  0  0  0  0
   -2.9718   -0.0393    5.1032 S   0  0  0  0  0  0  0  0  0  0  0  0
   -3.2144    0.3794   -0.1730 C   0  0  0  0  0  0  0  0  0  0  0  0
   -3.3390    1.3870   -1.0934 C   0  0  0  0  0  0  0  0  0  0  0  0
   -3.6979    2.9203   -0.3174 S   0  0  0  0  0  0  0  0  0  0  0  0
   -3.1045    1.2287   -2.4827 C   0  0  0  0  0  0  0  0  0  0  0  0
   -2.5146   -0.3161   -3.0032 S   0  0  0  0  0  0  0  0  0  0  0  0
   -2.2956    0.2109   -4.6412 C   0  0  0  0  0  0  0  0  0  0  0  0
   -2.7172    1.5360   -4.7877 C   0  0  0  0  0  0  0  0  0  0  0  0
   -3.1733    2.1149   -3.5612 C   0  0  0  0  0  0  0  0  0  0  0  0
   -3.6175    3.4536   -3.5610 C   0  0  0  0  0  0  0  0  0  0  0  0
   -3.6079    4.1928   -4.7072 C   0  0  0  0  0  0  0  0  0  0  0  0
   -4.0737    5.6120   -4.7370 C   0  0  0  0  0  0  0  0  0  0  0  0
   -3.1431    3.6071   -5.9282 C   0  0  0  0  0  0  0  0  0  0  0  0
   -3.1731    4.4375   -7.0024 O   0  0  0  0  0  0  0  0  0  0  0  0
   -2.7188    3.9479   -8.2409 C   0  0  0  0  0  0  0  0  0  0  0  0
   -2.7122    2.3070   -5.9656 C   0  0  0  0  0  0  0  0  0  0  0  0
   -1.6744   -0.6985   -5.5319 C   0  0  0  0  0  0  0  0  0  0  0  0
   -1.2190   -1.9404   -5.1740 C   0  0  0  0  0  0  0  0  0  0  0  0
   -0.5501   -2.6325   -6.2022 C   0  0  0  0  0  0  0  0  0  0  0  0
    0.0532   -3.9025   -6.1264 C   0  0  0  0  0  0  0  0  0  0  0  0
   -0.1041   -4.7043   -4.9267 C   0  0  0  0  0  0  0  0  0  0  0  0
    1.2573   -5.3562   -4.0631 S   0  0  0  0  0  0  0  0  0  0  0  0
    0.2517   -6.0072   -2.8151 C   0  0  0  0  0  0  0  0  0  0  0  0
    0.8244   -6.6864   -1.6200 C   0  0  0  0  0  0  0  0  0  0  0  0
    0.9516   -5.7072   -0.4498 C   0  0  0  0  0  0  0  0  0  0  0  0
   -1.0600   -5.7354   -3.0695 C   0  0  0  0  0  0  0  0  0  0  0  0
   -2.3497   -6.2144   -2.0439 Cl  0  0  0  0  0  0  0  0  0  0  0  0
   -1.2664   -5.0026   -4.2672 C   0  0  0  0  0  0  0  0  0  0  0  0
   -2.8337   -4.6068   -4.8451 Cl  0  0  0  0  0  0  0  0  0  0  0  0
    0.8055   -4.3007   -7.2212 C   0  0  0  0  0  0  0  0  0  0  0  0
    0.9138   -3.5194   -8.3984 C   0  0  0  0  0  0  0  0  0  0  0  0
    0.2208   -2.2973   -8.5129 C   0  0  0  0  0  0  0  0  0  0  0  0
    0.2652   -1.5313   -9.7448 C   0  0  0  0  0  0  0  0  0  0  0  0
    0.6180    0.1723   -9.7408 S   0  0  0  0  0  0  0  0  0  0  0  0
    0.5295    0.2773  -11.4665 C   0  0  0  0  0  0  0  0  0  0  0  0
    0.7084    1.5789  -12.1663 C   0  0  0  0  0  0  0  0  0  0  0  0
   -0.5605    2.4294  -12.0710 C   0  0  0  0  0  0  0  0  0  0  0  0
    0.2274   -0.9399  -11.9994 C   0  0  0  0  0  0  0  0  0  0  0  0
    0.0774   -1.9669  -11.0289 C   0  0  0  0  0  0  0  0  0  0  0  0
   -0.3902   -3.5632  -11.4575 Cl  0  0  0  0  0  0  0  0  0  0  0  0
    0.0556   -1.2358  -13.6810 Cl  0  0  0  0  0  0  0  0  0  0  0  0
   -0.4681   -1.8663   -7.3900 C   0  0  0  0  0  0  0  0  0  0  0  0
   -1.3038   -0.3464   -7.2119 S   0  0  0  0  0  0  0  0  0  0  0  0
    1.7997   -4.1014   -9.3329 C   0  0  0  0  0  0  0  0  0  0  0  0
    2.3176   -5.2966   -8.9250 C   0  0  0  0  0  0  0  0  0  0  0  0
    1.7401   -5.7645   -7.3412 S   0  0  0  0  0  0  0  0  0  0  0  0
    3.2500   -6.0912   -9.6577 C   0  0  0  0  0  0  0  0  0  0  0  0
    3.5498   -5.9529  -10.9809 C   0  0  0  0  0  0  0  0  0  0  0  0
    4.5826   -6.8150  -11.4197 C   0  0  0  0  0  0  0  0  0  0  0  0
    5.1387   -6.9102  -12.7066 C   0  0  0  0  0  0  0  0  0  0  0  0
    4.7194   -6.0060  -13.7632 C   0  0  0  0  0  0  0  0  0  0  0  0
    4.2154   -6.5964  -15.3186 S   0  0  0  0  0  0  0  0  0  0  0  0
    3.8698   -5.0039  -15.8996 C   0  0  0  0  0  0  0  0  0  0  0  0
    3.4101   -4.7752  -17.2968 C   0  0  0  0  0  0  0  0  0  0  0  0
    4.6029   -4.6926  -18.2525 C   0  0  0  0  0  0  0  0  0  0  0  0
    4.1480   -4.0777  -14.9389 C   0  0  0  0  0  0  0  0  0  0  0  0
    3.9298   -2.3879  -15.1444 Cl  0  0  0  0  0  0  0  0  0  0  0  0
    4.6275   -4.6408  -13.7267 C   0  0  0  0  0  0  0  0  0  0  0  0
    5.1219   -3.6680  -12.3997 Cl  0  0  0  0  0  0  0  0  0  0  0  0
    6.1065   -7.8879  -12.9008 C   0  0  0  0  0  0  0  0  0  0  0  0
    6.5555   -8.7431  -11.8663 C   0  0  0  0  0  0  0  0  0  0  0  0
    6.0014   -8.6434  -10.5798 C   0  0  0  0  0  0  0  0  0  0  0  0
    6.4074   -9.5340   -9.5047 C   0  0  0  0  0  0  0  0  0  0  0  0
    6.9279   -8.9199   -7.9644 S   0  0  0  0  0  0  0  0  0  0  0  0
    7.1676  -10.5095   -7.3246 C   0  0  0  0  0  0  0  0  0  0  0  0
    7.6952  -10.7148   -5.9477 C   0  0  0  0  0  0  0  0  0  0  0  0
    9.2238  -10.6426   -5.9286 C   0  0  0  0  0  0  0  0  0  0  0  0
    6.8633  -11.4497   -8.2633 C   0  0  0  0  0  0  0  0  0  0  0  0
    6.4273  -10.9011   -9.4991 C   0  0  0  0  0  0  0  0  0  0  0  0
    5.9040  -11.8774  -10.8106 Cl  0  0  0  0  0  0  0  0  0  0  0  0
    6.9743  -13.1413   -7.9956 Cl  0  0  0  0  0  0  0  0  0  0  0  0
    5.0366   -7.6642  -10.3821 C   0  0  0  0  0  0  0  0  0  0  0  0
    4.1986   -7.3449   -8.8893 S   0  0  0  0  0  0  0  0  0  0  0  0
    7.6065   -9.5972  -12.3125 C   0  0  0  0  0  0  0  0  0  0  0  0
    7.9174   -9.4106  -13.6110 C   0  0  0  0  0  0  0  0  0  0  0  0
    6.9711   -8.1847  -14.3826 S   0  0  0  0  0  0  0  0  0  0  0  0
    0.6051    2.7030   18.3727 H   0  0  0  0  0  0  0  0  0  0  0  0
    0.4170    5.3600   19.1678 H   0  0  0  0  0  0  0  0  0  0  0  0
    0.4842    8.7359   18.2985 H   0  0  0  0  0  0  0  0  0  0  0  0
    0.2046    7.6773   19.6943 H   0  0  0  0  0  0  0  0  0  0  0  0
   -1.1532    8.4585   18.8612 H   0  0  0  0  0  0  0  0  0  0  0  0
   -2.5394    8.1644   14.7248 H   0  0  0  0  0  0  0  0  0  0  0  0
   -0.8729    8.4607   14.1611 H   0  0  0  0  0  0  0  0  0  0  0  0
   -1.7844    9.7603   14.9714 H   0  0  0  0  0  0  0  0  0  0  0  0
   -1.3020    6.2196   14.5799 H   0  0  0  0  0  0  0  0  0  0  0  0
   -0.7424    1.2213   13.6516 H   0  0  0  0  0  0  0  0  0  0  0  0
   -2.0254   -4.3456   11.7879 H   0  0  0  0  0  0  0  0  0  0  0  0
   -0.2858   -4.5992   12.0220 H   0  0  0  0  0  0  0  0  0  0  0  0
   -1.6710   -4.1629    9.3267 H   0  0  0  0  0  0  0  0  0  0  0  0
    0.0596   -4.4316    9.5534 H   0  0  0  0  0  0  0  0  0  0  0  0
   -1.0902   -5.7153    9.9423 H   0  0  0  0  0  0  0  0  0  0  0  0
   -3.7522    9.6320    9.3804 H   0  0  0  0  0  0  0  0  0  0  0  0
   -4.5678    8.9289   10.7913 H   0  0  0  0  0  0  0  0  0  0  0  0
   -6.2164    9.5887    9.0489 H   0  0  0  0  0  0  0  0  0  0  0  0
   -5.4126    8.5420    7.8754 H   0  0  0  0  0  0  0  0  0  0  0  0
   -6.2267    7.8359    9.2745 H   0  0  0  0  0  0  0  0  0  0  0  0
   -3.2360    3.7971    7.4932 H   0  0  0  0  0  0  0  0  0  0  0  0
   -3.2803    3.5732    5.2277 H   0  0  0  0  0  0  0  0  0  0  0  0
   -4.2099    8.8323    2.3236 H   0  0  0  0  0  0  0  0  0  0  0  0
   -2.9946    8.2591    1.1637 H   0  0  0  0  0  0  0  0  0  0  0  0
   -1.9439    9.6533    2.9365 H   0  0  0  0  0  0  0  0  0  0  0  0
   -1.3537    7.9898    3.0267 H   0  0  0  0  0  0  0  0  0  0  0  0
   -2.5645    8.5615    4.1779 H   0  0  0  0  0  0  0  0  0  0  0  0
   -1.7284   -5.8071    1.9999 H   0  0  0  0  0  0  0  0  0  0  0  0
   -0.4158   -4.8408    2.7021 H   0  0  0  0  0  0  0  0  0  0  0  0
   -1.6459   -4.7468    4.8700 H   0  0  0  0  0  0  0  0  0  0  0  0
   -2.9451   -5.7220    4.1769 H   0  0  0  0  0  0  0  0  0  0  0  0
   -1.3350   -6.4181    4.3842 H   0  0  0  0  0  0  0  0  0  0  0  0
   -2.9736   -0.6287   -0.4569 H   0  0  0  0  0  0  0  0  0  0  0  0
   -3.9715    3.8928   -2.6414 H   0  0  0  0  0  0  0  0  0  0  0  0
   -4.3824    5.9378   -3.7478 H   0  0  0  0  0  0  0  0  0  0  0  0
   -4.9089    5.7158   -5.4279 H   0  0  0  0  0  0  0  0  0  0  0  0
   -3.2751    6.2583   -5.0973 H   0  0  0  0  0  0  0  0  0  0  0  0
   -2.8162    4.7778   -8.9391 H   0  0  0  0  0  0  0  0  0  0  0  0
   -3.3280    3.1075   -8.5884 H   0  0  0  0  0  0  0  0  0  0  0  0
   -1.6708    3.6357   -8.1883 H   0  0  0  0  0  0  0  0  0  0  0  0
   -2.3691    1.8537   -6.8796 H   0  0  0  0  0  0  0  0  0  0  0  0
   -1.3272   -2.3228   -4.1756 H   0  0  0  0  0  0  0  0  0  0  0  0
    0.1654   -7.5085   -1.3326 H   0  0  0  0  0  0  0  0  0  0  0  0
    1.8052   -7.0931   -1.8692 H   0  0  0  0  0  0  0  0  0  0  0  0
    1.6194   -4.8901   -0.7119 H   0  0  0  0  0  0  0  0  0  0  0  0
    1.3497   -6.2181    0.4229 H   0  0  0  0  0  0  0  0  0  0  0  0
   -0.0216   -5.2929   -0.1990 H   0  0  0  0  0  0  0  0  0  0  0  0
    1.5420    2.1215  -11.7166 H   0  0  0  0  0  0  0  0  0  0  0  0
    0.9430    1.3827  -13.2137 H   0  0  0  0  0  0  0  0  0  0  0  0
   -0.4141    3.3770  -12.5822 H   0  0  0  0  0  0  0  0  0  0  0  0
   -1.3973    1.9105  -12.5317 H   0  0  0  0  0  0  0  0  0  0  0  0
   -0.8047    2.6267  -11.0296 H   0  0  0  0  0  0  0  0  0  0  0  0
    2.0839   -3.6282  -10.2535 H   0  0  0  0  0  0  0  0  0  0  0  0
    3.0285   -5.2751  -11.6294 H   0  0  0  0  0  0  0  0  0  0  0  0
    2.7557   -5.5932  -17.6023 H   0  0  0  0  0  0  0  0  0  0  0  0
    2.8457   -3.8416  -17.3330 H   0  0  0  0  0  0  0  0  0  0  0  0
    5.2561   -3.8710  -17.9692 H   0  0  0  0  0  0  0  0  0  0  0  0
    5.1742   -5.6173  -18.2220 H   0  0  0  0  0  0  0  0  0  0  0  0
    4.2564   -4.5282  -19.2691 H   0  0  0  0  0  0  0  0  0  0  0  0
    7.3710  -11.6943   -5.5914 H   0  0  0  0  0  0  0  0  0  0  0  0
    7.2871   -9.9482   -5.2869 H   0  0  0  0  0  0  0  0  0  0  0  0
    9.5921  -10.7949   -4.9177 H   0  0  0  0  0  0  0  0  0  0  0  0
    9.6455  -11.4103   -6.5724 H   0  0  0  0  0  0  0  0  0  0  0  0
    9.5593   -9.6699   -6.2805 H   0  0  0  0  0  0  0  0  0  0  0  0
    8.1063  -10.3034  -11.6760 H   0  0  0  0  0  0  0  0  0  0  0  0
    8.6628   -9.9202  -14.1895 H   0  0  0  0  0  0  0  0  0  0  0  0
  1  2  1  0  0  0  0
  2  3  1  0  0  0  0
  3  4  2  0  0  0  0
  4  5  1  0  0  0  0
  5  6  1  0  0  0  0
  6  7  2  0  0  0  0
  7  8  1  0  0  0  0
  7  9  1  0  0  0  0
  9 10  1  0  0  0  0
 10 11  1  0  0  0  0
  9 12  2  0  0  0  0
  3 13  1  0  0  0  0
 13 14  2  0  0  0  0
 14 15  1  0  0  0  0
 15 16  2  0  0  0  0
 16 17  1  0  0  0  0
 17 18  1  0  0  0  0
 18 19  1  0  0  0  0
 19 20  1  0  0  0  0
 20 21  1  0  0  0  0
 19 22  2  0  0  0  0
 22 23  1  0  0  0  0
 22 24  1  0  0  0  0
 24 25  1  0  0  0  0
 16 26  1  0  0  0  0
 26 27  2  0  0  0  0
 27 28  1  0  0  0  0
 28 29  1  0  0  0  0
 29 30  1  0  0  0  0
 30 31  1  0  0  0  0
 31 32  1  0  0  0  0
 32 33  1  0  0  0  0
 31 34  2  0  0  0  0
 34 35  1  0  0  0  0
 35 36  1  0  0  0  0
 34 37  1  0  0  0  0
 28 38  2  0  0  0  0
 38 39  1  0  0  0  0
 27 40  1  0  0  0  0
 40 41  2  0  0  0  0
 41 42  1  0  0  0  0
 41 43  1  0  0  0  0
 43 44  2  0  0  0  0
 44 45  1  0  0  0  0
 45 46  2  0  0  0  0
 46 47  1  0  0  0  0
 47 48  1  0  0  0  0
 48 49  1  0  0  0  0
 49 50  1  0  0  0  0
 50 51  1  0  0  0  0
 49 52  2  0  0  0  0
 52 53  1  0  0  0  0
 52 54  1  0  0  0  0
 54 55  1  0  0  0  0
 46 56  1  0  0  0  0
 56 57  2  0  0  0  0
 57 58  1  0  0  0  0
 58 59  1  0  0  0  0
 59 60  1  0  0  0  0
 60 61  1  0  0  0  0
 61 62  1  0  0  0  0
 62 63  1  0  0  0  0
 61 64  2  0  0  0  0
 64 65  1  0  0  0  0
 65 66  1  0  0  0  0
 64 67  1  0  0  0  0
 58 68  2  0  0  0  0
 68 69  1  0  0  0  0
 57 70  1  0  0  0  0
 70 71  2  0  0  0  0
 71 72  1  0  0  0  0
 71 73  1  0  0  0  0
 73 74  1  0  0  0  0
 74 75  1  0  0  0  0
 75 76  2  0  0  0  0
 76 77  1  0  0  0  0
 77 78  1  0  0  0  0
 78 79  2  0  0  0  0
 79 80  1  0  0  0  0
 79 81  1  0  0  0  0
 81 82  1  0  0  0  0
 82 83  1  0  0  0  0
 81 84  2  0  0  0  0
 75 85  1  0  0  0  0
 85 86  2  0  0  0  0
 86 87  1  0  0  0  0
 87 88  2  0  0  0  0
 88 89  1  0  0  0  0
 89 90  1  0  0  0  0
 90 91  1  0  0  0  0
 91 92  1  0  0  0  0
 92 93  1  0  0  0  0
 91 94  2  0  0  0  0
 94 95  1  0  0  0  0
 94 96  1  0  0  0  0
 96 97  1  0  0  0  0
 88 98  1  0  0  0  0
 98 99  2  0  0  0  0
 99100  1  0  0  0  0
100101  1  0  0  0  0
101102  1  0  0  0  0
102103  1  0  0  0  0
103104  1  0  0  0  0
104105  1  0  0  0  0
103106  2  0  0  0  0
106107  1  0  0  0  0
107108  1  0  0  0  0
106109  1  0  0  0  0
100110  2  0  0  0  0
110111  1  0  0  0  0
 99112  1  0  0  0  0
112113  2  0  0  0  0
113114  1  0  0  0  0
113115  1  0  0  0  0
115116  2  0  0  0  0
116117  1  0  0  0  0
117118  2  0  0  0  0
118119  1  0  0  0  0
119120  1  0  0  0  0
120121  1  0  0  0  0
121122  1  0  0  0  0
122123  1  0  0  0  0
121124  2  0  0  0  0
124125  1  0  0  0  0
124126  1  0  0  0  0
126127  1  0  0  0  0
118128  1  0  0  0  0
128129  2  0  0  0  0
129130  1  0  0  0  0
130131  1  0  0  0  0
131132  1  0  0  0  0
132133  1  0  0  0  0
133134  1  0  0  0  0
134135  1  0  0  0  0
133136  2  0  0  0  0
136137  1  0  0  0  0
137138  1  0  0  0  0
136139  1  0  0  0  0
130140  2  0  0  0  0
140141  1  0  0  0  0
129142  1  0  0  0  0
142143  2  0  0  0  0
143144  1  0  0  0  0
  5  1  2  0  0  0  0
 39 13  1  0  0  0  0
 69 43  1  0  0  0  0
 77 73  2  0  0  0  0
111 85  1  0  0  0  0
141115  1  0  0  0  0
 12  4  1  0  0  0  0
 38 15  1  0  0  0  0
 68 45  1  0  0  0  0
 84 76  1  0  0  0  0
110 87  1  0  0  0  0
140117  1  0  0  0  0
 24 17  2  0  0  0  0
 42 26  1  0  0  0  0
 54 47  2  0  0  0  0
 72 56  1  0  0  0  0
 96 89  2  0  0  0  0
114 98  1  0  0  0  0
126119  2  0  0  0  0
144128  1  0  0  0  0
 35 29  2  0  0  0  0
 65 59  2  0  0  0  0
107101  2  0  0  0  0
137131  2  0  0  0  0
  1145  1  0  0  0  0
  6146  1  0  0  0  0
  8147  1  0  0  0  0
  8148  1  0  0  0  0
  8149  1  0  0  0  0
 11150  1  0  0  0  0
 11151  1  0  0  0  0
 11152  1  0  0  0  0
 12153  1  0  0  0  0
 14154  1  0  0  0  0
 20155  1  0  0  0  0
 20156  1  0  0  0  0
 21157  1  0  0  0  0
 21158  1  0  0  0  0
 21159  1  0  0  0  0
 32160  1  0  0  0  0
 32161  1  0  0  0  0
 33162  1  0  0  0  0
 33163  1  0  0  0  0
 33164  1  0  0  0  0
 40165  1  0  0  0  0
 44166  1  0  0  0  0
 50167  1  0  0  0  0
 50168  1  0  0  0  0
 51169  1  0  0  0  0
 51170  1  0  0  0  0
 51171  1  0  0  0  0
 62172  1  0  0  0  0
 62173  1  0  0  0  0
 63174  1  0  0  0  0
 63175  1  0  0  0  0
 63176  1  0  0  0  0
 70177  1  0  0  0  0
 78178  1  0  0  0  0
 80179  1  0  0  0  0
 80180  1  0  0  0  0
 80181  1  0  0  0  0
 83182  1  0  0  0  0
 83183  1  0  0  0  0
 83184  1  0  0  0  0
 84185  1  0  0  0  0
 86186  1  0  0  0  0
 92187  1  0  0  0  0
 92188  1  0  0  0  0
 93189  1  0  0  0  0
 93190  1  0  0  0  0
 93191  1  0  0  0  0
104192  1  0  0  0  0
104193  1  0  0  0  0
105194  1  0  0  0  0
105195  1  0  0  0  0
105196  1  0  0  0  0
112197  1  0  0  0  0
116198  1  0  0  0  0
122199  1  0  0  0  0
122200  1  0  0  0  0
123201  1  0  0  0  0
123202  1  0  0  0  0
123203  1  0  0  0  0
134204  1  0  0  0  0
134205  1  0  0  0  0
135206  1  0  0  0  0
135207  1  0  0  0  0
135208  1  0  0  0  0
142209  1  0  0  0  0
143210  1  0  0  0  0
M  END
