
  xtb     03042205023D
 energy: -163.424659836076 gnorm: 0.000263851701 xtb: 6.4.1 (unknown)
102113  0     0  0            999 V2000
    2.3843    6.7882    5.5045 C   0  0  0  0  0  0  0  0  0  0  0  0
    1.1911    5.5782    5.3352 S   0  0  0  0  0  0  0  0  0  0  0  0
    2.1415    4.6916    4.1804 C   0  0  0  0  0  0  0  0  0  0  0  0
    3.3675    5.3215    3.9769 C   0  0  0  0  0  0  0  0  0  0  0  0
    3.4922    6.5352    4.7291 C   0  0  0  0  0  0  0  0  0  0  0  0
    4.6820    7.2974    4.6212 C   0  0  0  0  0  0  0  0  0  0  0  0
    5.7089    6.8701    3.8391 C   0  0  0  0  0  0  0  0  0  0  0  0
    6.9797    7.6456    3.6971 C   0  0  0  0  0  0  0  0  0  0  0  0
    5.5976    5.6230    3.1362 C   0  0  0  0  0  0  0  0  0  0  0  0
    6.7060    5.2854    2.4153 O   0  0  0  0  0  0  0  0  0  0  0  0
    6.6832    4.0869    1.6823 C   0  0  0  0  0  0  0  0  0  0  0  0
    4.4631    4.8650    3.2100 C   0  0  0  0  0  0  0  0  0  0  0  0
    1.6375    3.4940    3.5967 C   0  0  0  0  0  0  0  0  0  0  0  0
    0.7393    2.3590    4.5534 S   0  0  0  0  0  0  0  0  0  0  0  0
    0.5418    1.2614    3.2224 C   0  0  0  0  0  0  0  0  0  0  0  0
    1.1711    1.7539    2.0784 C   0  0  0  0  0  0  0  0  0  0  0  0
    1.7635    3.0383    2.2841 C   0  0  0  0  0  0  0  0  0  0  0  0
    2.3366    3.7105    1.1796 C   0  0  0  0  0  0  0  0  0  0  0  0
    2.4242    3.1047   -0.0370 C   0  0  0  0  0  0  0  0  0  0  0  0
    3.0298    3.7883   -1.2220 C   0  0  0  0  0  0  0  0  0  0  0  0
    1.9344    1.7687   -0.2008 C   0  0  0  0  0  0  0  0  0  0  0  0
    2.1219    1.2470   -1.4483 O   0  0  0  0  0  0  0  0  0  0  0  0
    1.6061   -0.0316   -1.7154 C   0  0  0  0  0  0  0  0  0  0  0  0
    1.3151    1.1147    0.8274 C   0  0  0  0  0  0  0  0  0  0  0  0
   -0.1779    0.0542    3.4359 C   0  0  0  0  0  0  0  0  0  0  0  0
   -0.1490   -0.4641    4.7126 O   0  0  0  0  0  0  0  0  0  0  0  0
   -0.8828   -1.5832    4.6282 C   0  0  0  0  0  0  0  0  0  0  0  0
   -1.5514   -2.7615    5.2747 C   0  0  0  0  0  0  0  0  0  0  0  0
   -2.1322   -3.0446    3.8486 C   0  0  0  0  0  0  0  0  0  0  0  0
   -1.3778   -1.8100    3.3867 C   0  0  0  0  0  0  0  0  0  0  0  0
   -0.9539   -0.7346    2.5614 C   0  0  0  0  0  0  0  0  0  0  0  0
   -1.3870   -0.3491    1.2484 C   0  0  0  0  0  0  0  0  0  0  0  0
   -1.8579   -1.1593    0.2754 C   0  0  0  0  0  0  0  0  0  0  0  0
   -1.8102   -2.5835    0.2334 C   0  0  0  0  0  0  0  0  0  0  0  0
   -0.9267   -3.2662    1.0386 O   0  0  0  0  0  0  0  0  0  0  0  0
   -1.0997   -4.5533    0.7046 C   0  0  0  0  0  0  0  0  0  0  0  0
   -0.7848   -6.0124    0.8858 C   0  0  0  0  0  0  0  0  0  0  0  0
   -1.8624   -6.2464   -0.2279 C   0  0  0  0  0  0  0  0  0  0  0  0
   -2.0347   -4.7379   -0.2600 C   0  0  0  0  0  0  0  0  0  0  0  0
   -2.5325   -3.4554   -0.6089 C   0  0  0  0  0  0  0  0  0  0  0  0
   -3.5240   -3.1143   -1.5774 C   0  0  0  0  0  0  0  0  0  0  0  0
   -4.0710   -4.0408   -2.3898 C   0  0  0  0  0  0  0  0  0  0  0  0
   -5.0157   -3.7721   -3.4201 C   0  0  0  0  0  0  0  0  0  0  0  0
   -5.7577   -2.6145   -3.3826 O   0  0  0  0  0  0  0  0  0  0  0  0
   -6.5642   -2.7057   -4.4472 C   0  0  0  0  0  0  0  0  0  0  0  0
   -7.6379   -2.1476   -5.3381 C   0  0  0  0  0  0  0  0  0  0  0  0
   -7.4405   -3.4557   -6.1772 C   0  0  0  0  0  0  0  0  0  0  0  0
   -6.3828   -3.8466   -5.1609 C   0  0  0  0  0  0  0  0  0  0  0  0
   -5.3469   -4.5747   -4.5267 C   0  0  0  0  0  0  0  0  0  0  0  0
   -4.7601   -5.8296   -4.9349 C   0  0  0  0  0  0  0  0  0  0  0  0
   -3.4759   -6.2149   -4.8348 C   0  0  0  0  0  0  0  0  0  0  0  0
   -2.3510   -5.4296   -4.3977 C   0  0  0  0  0  0  0  0  0  0  0  0
   -1.3766   -6.0999   -3.6867 O   0  0  0  0  0  0  0  0  0  0  0  0
   -0.4941   -5.1462   -3.3538 C   0  0  0  0  0  0  0  0  0  0  0  0
    0.7714   -4.6977   -2.6780 C   0  0  0  0  0  0  0  0  0  0  0  0
    0.3925   -3.2736   -3.2088 C   0  0  0  0  0  0  0  0  0  0  0  0
   -0.8344   -3.9212   -3.8240 C   0  0  0  0  0  0  0  0  0  0  0  0
   -2.0513   -4.0689   -4.5350 C   0  0  0  0  0  0  0  0  0  0  0  0
   -2.7815   -3.0882   -5.3012 C   0  0  0  0  0  0  0  0  0  0  0  0
   -2.6032   -1.7792   -5.1662 C   0  0  0  0  0  0  0  0  0  0  0  0
    2.2136    7.6159    6.1632 H   0  0  0  0  0  0  0  0  0  0  0  0
    4.7610    8.2208    5.1756 H   0  0  0  0  0  0  0  0  0  0  0  0
    6.9400    8.5627    4.2785 H   0  0  0  0  0  0  0  0  0  0  0  0
    7.8232    7.0440    4.0320 H   0  0  0  0  0  0  0  0  0  0  0  0
    7.1527    7.8907    2.6504 H   0  0  0  0  0  0  0  0  0  0  0  0
    7.6432    4.0354    1.1706 H   0  0  0  0  0  0  0  0  0  0  0  0
    6.5749    3.2163    2.3376 H   0  0  0  0  0  0  0  0  0  0  0  0
    5.8753    4.0815    0.9430 H   0  0  0  0  0  0  0  0  0  0  0  0
    4.3814    3.9136    2.7121 H   0  0  0  0  0  0  0  0  0  0  0  0
    2.6908    4.7219    1.3083 H   0  0  0  0  0  0  0  0  0  0  0  0
    2.3045    3.8457   -2.0320 H   0  0  0  0  0  0  0  0  0  0  0  0
    3.3568    4.7922   -0.9636 H   0  0  0  0  0  0  0  0  0  0  0  0
    3.8797    3.2154   -1.5907 H   0  0  0  0  0  0  0  0  0  0  0  0
    1.8243   -0.2247   -2.7648 H   0  0  0  0  0  0  0  0  0  0  0  0
    0.5232   -0.0686   -1.5537 H   0  0  0  0  0  0  0  0  0  0  0  0
    2.0864   -0.7981   -1.0981 H   0  0  0  0  0  0  0  0  0  0  0  0
    0.9324    0.1143    0.7184 H   0  0  0  0  0  0  0  0  0  0  0  0
   -2.2940   -2.5129    6.0311 H   0  0  0  0  0  0  0  0  0  0  0  0
   -0.8801   -3.5273    5.6605 H   0  0  0  0  0  0  0  0  0  0  0  0
   -1.7998   -3.9797    3.4060 H   0  0  0  0  0  0  0  0  0  0  0  0
   -3.2148   -2.9659    3.7767 H   0  0  0  0  0  0  0  0  0  0  0  0
   -1.3965    0.7190    1.0709 H   0  0  0  0  0  0  0  0  0  0  0  0
   -2.3043   -0.7048   -0.5987 H   0  0  0  0  0  0  0  0  0  0  0  0
   -1.0385   -6.4250    1.8615 H   0  0  0  0  0  0  0  0  0  0  0  0
    0.2278   -6.3131    0.6201 H   0  0  0  0  0  0  0  0  0  0  0  0
   -1.4802   -6.6869   -1.1455 H   0  0  0  0  0  0  0  0  0  0  0  0
   -2.7399   -6.7958    0.1065 H   0  0  0  0  0  0  0  0  0  0  0  0
   -3.8112   -2.0779   -1.6733 H   0  0  0  0  0  0  0  0  0  0  0  0
   -3.7633   -5.0725   -2.3041 H   0  0  0  0  0  0  0  0  0  0  0  0
   -7.3777   -1.2267   -5.8574 H   0  0  0  0  0  0  0  0  0  0  0  0
   -8.6182   -2.0407   -4.8764 H   0  0  0  0  0  0  0  0  0  0  0  0
   -8.3103   -4.1084   -6.2073 H   0  0  0  0  0  0  0  0  0  0  0  0
   -7.0677   -3.2913   -7.1858 H   0  0  0  0  0  0  0  0  0  0  0  0
   -5.4606   -6.5226   -5.3852 H   0  0  0  0  0  0  0  0  0  0  0  0
   -3.2262   -7.2386   -5.0866 H   0  0  0  0  0  0  0  0  0  0  0  0
    1.6917   -5.1117   -3.0872 H   0  0  0  0  0  0  0  0  0  0  0  0
    0.7758   -4.7898   -1.5936 H   0  0  0  0  0  0  0  0  0  0  0  0
    0.1741   -2.5516   -2.4252 H   0  0  0  0  0  0  0  0  0  0  0  0
    1.0991   -2.8508   -3.9195 H   0  0  0  0  0  0  0  0  0  0  0  0
   -3.4873   -3.4794   -6.0206 H   0  0  0  0  0  0  0  0  0  0  0  0
   -3.1478   -1.0664   -5.7607 H   0  0  0  0  0  0  0  0  0  0  0  0
   -1.9105   -1.3812   -4.4437 H   0  0  0  0  0  0  0  0  0  0  0  0
  1  2  1  0  0  0  0
  2  3  1  0  0  0  0
  3  4  2  0  0  0  0
  4  5  1  0  0  0  0
  5  6  1  0  0  0  0
  6  7  2  0  0  0  0
  7  8  1  0  0  0  0
  7  9  1  0  0  0  0
  9 10  1  0  0  0  0
 10 11  1  0  0  0  0
  9 12  2  0  0  0  0
  3 13  1  0  0  0  0
 13 14  1  0  0  0  0
 14 15  1  0  0  0  0
 15 16  2  0  0  0  0
 16 17  1  0  0  0  0
 17 18  1  0  0  0  0
 18 19  2  0  0  0  0
 19 20  1  0  0  0  0
 19 21  1  0  0  0  0
 21 22  1  0  0  0  0
 22 23  1  0  0  0  0
 21 24  2  0  0  0  0
 15 25  1  0  0  0  0
 25 26  1  0  0  0  0
 26 27  1  0  0  0  0
 27 28  1  0  0  0  0
 28 29  1  0  0  0  0
 29 30  1  0  0  0  0
 30 31  1  0  0  0  0
 31 32  1  0  0  0  0
 32 33  2  0  0  0  0
 33 34  1  0  0  0  0
 34 35  1  0  0  0  0
 35 36  1  0  0  0  0
 36 37  1  0  0  0  0
 37 38  1  0  0  0  0
 38 39  1  0  0  0  0
 39 40  1  0  0  0  0
 40 41  1  0  0  0  0
 41 42  2  0  0  0  0
 42 43  1  0  0  0  0
 43 44  1  0  0  0  0
 44 45  1  0  0  0  0
 45 46  1  0  0  0  0
 46 47  1  0  0  0  0
 47 48  1  0  0  0  0
 48 49  1  0  0  0  0
 49 50  1  0  0  0  0
 50 51  2  0  0  0  0
 51 52  1  0  0  0  0
 52 53  1  0  0  0  0
 53 54  1  0  0  0  0
 54 55  1  0  0  0  0
 55 56  1  0  0  0  0
 56 57  1  0  0  0  0
 57 58  1  0  0  0  0
 58 59  1  0  0  0  0
 59 60  2  0  0  0  0
  5  1  2  0  0  0  0
 17 13  2  0  0  0  0
 31 25  2  0  0  0  0
 40 34  2  0  0  0  0
 49 43  2  0  0  0  0
 58 52  2  0  0  0  0
 12  4  1  0  0  0  0
 24 16  1  0  0  0  0
 30 27  2  0  0  0  0
 39 36  2  0  0  0  0
 48 45  2  0  0  0  0
 57 54  2  0  0  0  0
  1 61  1  0  0  0  0
  6 62  1  0  0  0  0
  8 63  1  0  0  0  0
  8 64  1  0  0  0  0
  8 65  1  0  0  0  0
 11 66  1  0  0  0  0
 11 67  1  0  0  0  0
 11 68  1  0  0  0  0
 12 69  1  0  0  0  0
 18 70  1  0  0  0  0
 20 71  1  0  0  0  0
 20 72  1  0  0  0  0
 20 73  1  0  0  0  0
 23 74  1  0  0  0  0
 23 75  1  0  0  0  0
 23 76  1  0  0  0  0
 24 77  1  0  0  0  0
 28 78  1  0  0  0  0
 28 79  1  0  0  0  0
 29 80  1  0  0  0  0
 29 81  1  0  0  0  0
 32 82  1  0  0  0  0
 33 83  1  0  0  0  0
 37 84  1  0  0  0  0
 37 85  1  0  0  0  0
 38 86  1  0  0  0  0
 38 87  1  0  0  0  0
 41 88  1  0  0  0  0
 42 89  1  0  0  0  0
 46 90  1  0  0  0  0
 46 91  1  0  0  0  0
 47 92  1  0  0  0  0
 47 93  1  0  0  0  0
 50 94  1  0  0  0  0
 51 95  1  0  0  0  0
 55 96  1  0  0  0  0
 55 97  1  0  0  0  0
 56 98  1  0  0  0  0
 56 99  1  0  0  0  0
 59100  1  0  0  0  0
 60101  1  0  0  0  0
 60102  1  0  0  0  0
M  END
