232

C          3.65900       -9.64420        4.23260
C          4.32920       -8.71500        4.94430
C          3.60360       -7.49640        5.08220
C          4.01710       -6.30580        5.70020
C          5.36390       -6.15490        6.22720
S          5.65710       -5.63560        7.85810
C          7.37450       -5.69210        7.64890
C          8.29560       -5.28060        8.74350
C          8.42580       -3.75650        8.79950
C          7.68630       -6.08090        6.38010
Cl         9.29170       -6.24430        5.79210
C          6.54850       -6.34790        5.57330
Cl         6.67090       -6.78890        3.92010
C          3.10530       -5.26040        5.73270
C          1.82230       -5.34960        5.14280
C          1.42860       -6.51680        4.46740
C          0.16990       -6.56260        3.74130
S         -0.20740       -5.33110        2.56880
C         -1.71860       -6.06600        2.16180
C         -2.60870       -5.47920        1.12190
C         -2.67680       -3.95750        1.21280
C         -1.90740       -7.19420        2.90220
C         -0.83950       -7.48160        3.79590
Cl        -0.88220       -8.80770        4.87880
Cl        -3.29130       -8.19970        2.77860
C          2.32980       -7.57530        4.46710
S          2.10490       -9.11750        3.69540
C          1.10450       -4.13660        5.26470
C          1.81920       -3.13140        5.84710
S          3.40240       -3.66640        6.37400
C          1.47360       -1.74790        5.81040
C          2.26390       -0.66890        6.07610
C          1.73700        0.55440        5.58570
C          2.37530        1.80880        5.51970
C          3.64370        2.02610        6.18900
S          5.00960        2.71500        5.36290
C          6.01240        2.60600        6.76770
C          7.44460        3.01070        6.72960
C          8.33270        1.83460        6.31540
C          5.31750        2.06160        7.80690
Cl         5.98180        1.80050        9.36760
C          3.97460        1.73320        7.48460
Cl         2.87320        1.11050        8.64470
C          1.77310        2.78340        4.72880
C          0.53440        2.56860        4.08360
C         -0.11960        1.33070        4.16860
C         -1.28100        1.07560        3.32510
S         -1.16120       -0.02880        1.98220
C         -2.73910        0.38670        1.40550
C         -3.26990       -0.14540        0.11960
C         -3.06560        0.87770       -1.00160
C         -3.31600        1.30930        2.22610
C         -2.48700        1.71350        3.30690
Cl        -2.96630        2.88000        4.46890
Cl        -4.88930        1.93440        1.98620
C          0.50200        0.35070        4.91900
S         -0.03130       -1.29690        5.02800
C          0.16520        3.65880        3.26390
C          1.08370        4.66220        3.24120
S          2.44470        4.33720        4.28710
C          0.91180        5.73890        2.29610
C         -0.27190        6.37540        2.09960
C         -0.41090        6.92120        0.79820
C         -1.59860        7.38760        0.22070
C         -2.84900        7.39550        0.97800
S         -3.73900        8.82100        1.39180
C         -5.00300        7.90070        2.13890
C         -6.20740        8.56470        2.70900
C         -7.27690        8.76890        1.63310
C         -4.74050        6.56610        2.04880
Cl        -5.75840        5.33780        2.67580
C         -3.51690        6.27770        1.38960
Cl        -2.95860        4.68360        1.09670
C         -1.61860        7.50920       -1.15610
C         -0.50780        7.20040       -1.97810
C          0.73280        6.88490       -1.38310
C          1.89090        6.61930       -2.21100
S          2.93680        5.25710       -1.93680
C          3.94620        5.65660       -3.28500
C          5.15290        4.84480       -3.60230
C          6.29470        5.16110       -2.63370
C          3.49520        6.78940       -3.89460
C          2.32610        7.33190       -3.29720
Cl         1.59680        8.78080       -3.85560
Cl         4.24680        7.50910       -5.25960
C          0.73580        6.70340       -0.00170
S          1.99960        5.93380        0.92850
C         -0.91850        6.89950       -3.30590
C         -2.27440        6.94460       -3.47780
S         -3.08940        7.62890       -2.07890
C         -3.05490        6.10910       -4.34190
C         -2.68750        5.37020       -5.42980
C         -3.48170        4.20580       -5.61150
C         -3.25150        3.13290       -6.50190
C         -2.41600        3.31680       -7.66800
S         -1.25010        2.13440       -8.18810
C         -0.76080        3.09450       -9.54170
C          0.25590        2.59950      -10.50950
C         -0.39000        1.68990      -11.55760
C         -1.47830        4.25310       -9.58690
Cl        -1.28590        5.45090      -10.80110
C         -2.41090        4.38770       -8.52570
Cl        -3.47560        5.72860       -8.41380
C         -3.80240        1.90740       -6.13920
C         -4.66920        1.75670       -5.02970
C         -5.11340        2.88340       -4.31490
C         -6.09450        2.76010       -3.25600
S         -5.88470        3.50930       -1.69860
C         -7.40030        2.91160       -1.11760
C         -7.89620        3.28610        0.23400
C         -8.36170        4.74370        0.25600
C         -8.02120        2.17460       -2.08190
C         -7.28080        2.07670       -3.28950
Cl        -7.87770        1.25220       -4.67070
Cl        -9.55560        1.42980       -1.88380
C         -4.46010        4.07490       -4.59730
S         -4.53190        5.49600       -3.60550
C         -4.81690        0.40290       -4.64810
C         -4.12030       -0.46740       -5.43260
S         -3.37060        0.34910       -6.80320
C         -3.69540       -1.77460       -5.04800
S         -3.28240       -1.96600       -3.37470
C         -2.49400       -3.48010       -3.65090
C         -2.62360       -3.86880       -4.98530
C         -3.28900       -2.88260       -5.78270
C         -3.44460       -3.10290       -7.16880
C         -2.96400       -4.23870       -7.74710
C         -3.11130       -4.50920       -9.20900
C         -2.28350       -5.21440       -6.94470
O         -1.84300       -6.29880       -7.63420
C         -1.17740       -7.31920       -6.93070
C         -2.11350       -5.03140       -5.59840
C         -1.59940       -3.96880       -2.65250
C         -1.15840       -5.22680       -2.37490
C         -0.07310       -5.25890       -1.45810
C          0.61520       -6.38190       -0.96910
C          0.28380       -7.72050       -1.42640
S          0.19130       -8.06620       -3.13350
C         -0.13780       -9.74300       -2.86400
C         -0.39040      -10.67630       -3.99650
C         -1.88660      -10.77160       -4.30480
C         -0.18410      -10.00190       -1.52760
Cl        -0.49820      -11.55320       -0.86830
C          0.05990       -8.86330       -0.71060
Cl        -0.01500       -8.94100        0.99970
C          1.67430       -6.13920       -0.09900
C          2.10400       -4.83590        0.25800
C          1.38770       -3.71300       -0.19530
C          1.76000       -2.34870        0.13910
S          1.77380       -1.09920       -1.07810
C          2.25980        0.11890        0.04630
C          2.49190        1.53060       -0.36770
C          3.97720        1.80510       -0.61210
C          2.41370       -0.42500        1.28560
C          2.12220       -1.81290        1.34500
Cl         2.13060       -2.67330        2.82330
Cl         2.91090        0.47800        2.65790
C          0.30640       -3.96430       -1.03320
S         -0.72880       -2.75190       -1.72290
C          3.30200       -4.88090        1.02970
C          3.71960       -6.13700        1.28560
S          2.71410       -7.35360        0.58630
H          3.97650      -10.63800        3.98400
H          5.30050       -8.87800        5.37390
H          7.91270       -5.64650        9.69780
H          9.27520       -5.72720        8.56450
H          8.81700       -3.37680        7.85870
H          7.45470       -3.30200        8.98060
H          9.10200       -3.46890        9.59990
H         -2.23730       -5.76450        0.13230
H         -3.60450       -5.91120        1.24040
H         -1.68390       -3.52530        1.10550
H         -3.31560       -3.56600        0.42530
H         -3.08050       -3.64990        2.17420
H          0.10770       -3.99050        4.88960
H          3.23430       -0.76480        6.52900
H          7.73890        3.35710        7.72210
H          7.56950        3.82980        6.01990
H          8.04980        1.47830        5.32780
H          9.37410        2.14370        6.29100
H          8.22820        1.01650        7.02360
H         -4.33630       -0.35340        0.23030
H         -2.75280       -1.07080       -0.13480
H         -3.56700        1.81200       -0.76130
H         -3.47000        0.49580       -1.93470
H         -2.00550        1.07520       -1.14030
H         -0.72330        3.67320        2.66030
H         -1.05880        6.38710        2.83140
H         -5.92450        9.53120        3.12910
H         -6.60860        7.93880        3.50850
H         -8.14810        9.25720        2.06120
H         -6.88870        9.38850        0.82830
H         -7.58210        7.81180        1.21810
H          4.90480        3.78370       -3.53400
H          5.46420        5.06660       -4.62420
H          7.16490        4.55590       -2.87240
H          5.99160        4.95010       -1.61080
H          6.56980        6.21030       -2.70480
H         -0.25220        6.49810       -4.04790
H         -1.81610        5.58530       -6.02130
H          1.02710        2.04400       -9.97310
H          0.71800        3.45640      -11.00280
H          0.36090        1.33630      -12.25890
H         -1.15310        2.23350      -12.10890
H         -0.85280        0.83150      -11.07650
H         -8.72270        2.62630        0.50230
H         -7.09560        3.15700        0.96380
H         -9.17940        4.89240       -0.44510
H         -8.70250        5.00960        1.25310
H         -7.54020        5.40070       -0.02170
H         -5.34960        0.09140       -3.76750
H         -3.95080       -2.35710       -7.76280
H         -2.13070       -4.63730       -9.66440
H         -3.66220       -5.43550       -9.36380
H         -3.63280       -3.69400       -9.70220
H         -0.93180       -8.07640       -7.67340
H         -1.82010       -7.75980       -6.16190
H         -0.25760       -6.95540       -6.46210
H         -1.58660       -5.74790       -4.99230
H         -1.60450       -6.11050       -2.79050
H         -0.01400      -11.66470       -3.72610
H          0.14470      -10.32570       -4.88060
H         -2.05450      -11.45070       -5.13610
H         -2.28340       -9.79370       -4.56720
H         -2.42560      -11.14240       -3.43710
H          1.92730        1.73850       -1.27720
H          2.13240        2.19200        0.42390
H          4.54900        1.60980        0.29090
H          4.35370        1.16800       -1.40870
H          4.11360        2.84540       -0.89470
H          3.83570       -4.00890        1.35590
H          4.57750       -6.44340        1.85160
