152

C          4.62200        4.55120       10.32300
S          3.61510        4.78680        8.96760
C          3.15520        3.10320        8.89540
C          3.79390        2.40020        9.93210
C          4.62750        3.24010       10.73960
C          5.34530        2.68670       11.82710
C          5.24990        1.36160       12.11850
C          5.99530        0.73490       13.25270
C          4.39990        0.52840       11.32200
O          4.36940       -0.77690       11.70980
C          3.58880       -1.67880       10.96650
C          3.68960        1.03600       10.26570
C          2.32090        2.62290        7.86120
S          2.24650        0.92290        7.50420
C          1.18800        1.12130        6.13440
C          0.88190        2.48810        5.98140
C          1.51000        3.32610        6.95110
C          1.23890        4.70890        6.92700
C          0.42220        5.25810        5.98120
C          0.12740        6.72300        5.94350
C         -0.18770        4.41550        5.00730
O         -0.98430        5.05850        4.11080
C         -1.62130        4.29870        3.11320
C          0.02590        3.06120        5.02370
C          0.81600        0.01620        5.34630
S          0.19340        0.24120        3.73340
C          0.03850       -1.46380        3.43170
C          0.51550       -2.18960        4.52930
C          0.92550       -1.36400        5.61790
C          1.35430       -1.99430        6.80290
C          1.45460       -3.35380        6.88900
C          1.90080       -4.03740        8.14210
C          1.15380       -4.15940        5.75010
O          1.35090       -5.49580        5.92650
C          1.05190       -6.36030        4.85880
C          0.69190       -3.58640        4.59560
C         -0.50340       -1.90120        2.20280
S         -0.20540       -0.98430        0.76080
C         -1.09290       -2.09270       -0.24290
C         -1.64840       -3.12020        0.53310
C         -1.32350       -3.00260        1.91920
C         -1.91620       -3.88730        2.84430
C         -2.72770       -4.90060        2.42650
C         -3.36490       -5.85460        3.38580
C         -3.00870       -5.04770        1.03310
O         -3.82260       -6.09220        0.72740
C         -4.17730       -6.30130       -0.61870
C         -2.50120       -4.16280        0.11710
C         -1.15780       -1.83760       -1.63480
C         -1.56130       -2.64310       -2.66590
C         -1.50940       -2.02720       -3.93780
C         -1.86210       -2.58840       -5.17890
C         -2.48530       -3.91370       -5.25390
C         -2.04420       -4.88300       -6.14880
C         -2.63620       -6.13070       -6.20530
C         -3.69360       -6.45720       -5.36460
S         -4.55210       -7.99610       -5.32420
C         -3.59230       -9.08410       -6.43150
C         -2.29350       -9.55120       -5.80140
C         -4.13720       -5.46960       -4.48360
F         -5.17540       -5.74320       -3.66020
C         -3.55890       -4.22410       -4.41820
C         -1.62810       -1.81040       -6.30170
C         -1.08630       -0.50250       -6.24090
C         -0.75610        0.06590       -4.99720
C         -0.17400        1.40840       -4.88770
C         -0.70370        2.34650       -4.00660
C         -0.14100        3.60050       -3.87390
C          0.98340        3.95790       -4.60870
S          1.78930        5.52480       -4.52300
C          1.30390        6.16840       -2.88370
C          1.85830        5.33010       -1.74820
C          1.49590        3.01390       -5.49900
C          0.94040        1.76260       -5.64600
F          2.57990        3.32750       -6.23830
C         -0.99280       -0.71030       -3.87500
S         -0.64710       -0.25640       -2.22630
C         -1.00140        0.09920       -7.52090
C         -1.45220       -0.69190       -8.53830
S         -2.00400       -2.25410       -7.94560
C         -1.49330       -0.42860       -9.93790
S         -1.54220       -1.75920      -11.04940
C         -1.50560       -0.72870      -12.40780
C         -1.47050        0.59980      -12.04930
C         -1.47500        0.78450      -10.62690
C         -1.50940        2.10420      -10.12310
C         -1.48590        3.17570      -10.96400
C         -1.51970        4.58020      -10.45340
C         -1.42940        2.97730      -12.38420
O         -1.39000        4.13080      -13.10820
C         -1.32660        4.03780      -14.50840
C         -1.43570        1.71980      -12.91500
H          5.15070        5.38310       10.74270
H          5.97090        3.33700       12.42020
H          6.63710       -0.06240       12.88150
H          6.60210        1.47240       13.77080
H          5.29600        0.28620       13.95640
H          3.73990       -2.65240       11.43080
H          3.91150       -1.71980        9.92080
H          2.52560       -1.41860       11.00890
H          3.03940        0.40240        9.69030
H          1.66730        5.35120        7.67830
H          0.64680        7.24300        6.74350
H          0.43430        7.13930        4.98540
H         -0.94410        6.89110        6.04040
H         -2.31940        3.57370        3.54360
H         -2.17470        5.01450        2.50710
H         -0.89690        3.77120        2.48450
H         -0.47270        2.42330        4.31700
H          1.59850       -1.39890        7.66720
H          2.84640       -4.54990        7.96990
H          1.17360       -4.79280        8.43420
H          2.02440       -3.32380        8.95200
H          1.25700       -7.36460        5.22640
H         -0.00010       -6.28820        4.56410
H          1.68360       -6.15750        3.98800
H          0.47490       -4.17220        3.71860
H         -1.74560       -3.73590        3.89900
H         -4.44890       -5.80520        3.29660
H         -3.06910       -6.87580        3.14980
H         -3.07990       -5.62330        4.40900
H         -4.74350       -5.45820       -1.02360
H         -3.29640       -6.48120       -1.24340
H         -4.80820       -7.18800       -0.62730
H         -2.77610       -4.23510       -0.91880
H         -1.82720       -3.67520       -2.54620
H         -1.21330       -4.66700       -6.80240
H         -2.26230       -6.84720       -6.91800
H         -3.43720       -8.56570       -7.37660
H         -4.26210       -9.92660       -6.60440
H         -1.77040      -10.21870       -6.48350
H         -1.64370       -8.70970       -5.57150
H         -2.49760      -10.08780       -4.87780
H         -3.96100       -3.49080       -3.73640
H         -1.58050        2.09920       -3.42820
H         -0.59190        4.30450       -3.19330
H          0.21850        6.25380       -2.84580
H          1.73040        7.17150       -2.87160
H          1.46610        4.31560       -1.78340
H          1.58620        5.77480       -0.79280
H          2.94270        5.28100       -1.81310
H          1.39880        1.06070       -6.32500
H         -0.59480        1.08040       -7.67340
H         -1.50860       -1.14670      -13.39430
H         -1.57930        2.26890       -9.06000
H         -0.62140        5.11100      -10.76530
H         -1.58570        4.59730       -9.36900
H         -2.37150        5.11150      -10.87490
H         -2.21010        3.53770      -14.91880
H         -1.29200        5.06360      -14.87220
H         -0.42640        3.50680      -14.83490
H         -1.41880        1.54020      -13.97790
