
  xtb     03042205203D
 energy: -416.043140131617 gnorm: 0.000279667063 xtb: 6.4.1 (unknown)
242265  0     0  0            999 V2000
   -5.3732    4.1457   17.1063 C   0  0  0  0  0  0  0  0  0  0  0  0
   -6.0019    4.7518   16.0796 C   0  0  0  0  0  0  0  0  0  0  0  0
   -5.3586    4.5331   14.8242 C   0  0  0  0  0  0  0  0  0  0  0  0
   -5.7405    5.0122   13.5617 C   0  0  0  0  0  0  0  0  0  0  0  0
   -6.8938    5.9062   13.3961 C   0  0  0  0  0  0  0  0  0  0  0  0
   -7.0053    7.0718   14.1479 C   0  0  0  0  0  0  0  0  0  0  0  0
   -8.0821    7.9232   13.9922 C   0  0  0  0  0  0  0  0  0  0  0  0
   -9.0882    7.6376   13.0764 C   0  0  0  0  0  0  0  0  0  0  0  0
  -10.5285    8.6147   12.8018 S   0  0  0  0  0  0  0  0  0  0  0  0
  -10.1177   10.2312   13.5457 C   0  0  0  0  0  0  0  0  0  0  0  0
   -9.0479   10.9682   12.7627 C   0  0  0  0  0  0  0  0  0  0  0  0
   -8.9655    6.4619   12.3332 C   0  0  0  0  0  0  0  0  0  0  0  0
   -9.9307    6.1454   11.4486 F   0  0  0  0  0  0  0  0  0  0  0  0
   -7.8949    5.6083   12.4744 C   0  0  0  0  0  0  0  0  0  0  0  0
   -4.9695    4.6060   12.4822 C   0  0  0  0  0  0  0  0  0  0  0  0
   -3.8270    3.7829   12.6274 C   0  0  0  0  0  0  0  0  0  0  0  0
   -3.4238    3.3273   13.8927 C   0  0  0  0  0  0  0  0  0  0  0  0
   -2.2208    2.4961   14.0245 C   0  0  0  0  0  0  0  0  0  0  0  0
   -1.0189    2.8889   13.4331 C   0  0  0  0  0  0  0  0  0  0  0  0
    0.0945    2.0814   13.4963 C   0  0  0  0  0  0  0  0  0  0  0  0
    0.0599    0.8458   14.1437 C   0  0  0  0  0  0  0  0  0  0  0  0
    1.5310   -0.1247   14.0736 S   0  0  0  0  0  0  0  0  0  0  0  0
    1.4989   -1.1298   15.6102 C   0  0  0  0  0  0  0  0  0  0  0  0
    2.9099   -1.5917   15.9169 C   0  0  0  0  0  0  0  0  0  0  0  0
   -1.1416    0.4713   14.7375 C   0  0  0  0  0  0  0  0  0  0  0  0
   -2.2603    1.2801   14.6963 C   0  0  0  0  0  0  0  0  0  0  0  0
   -1.2662   -0.7207   15.3648 F   0  0  0  0  0  0  0  0  0  0  0  0
   -4.2207    3.7008   14.9637 C   0  0  0  0  0  0  0  0  0  0  0  0
   -3.9623    3.2616   16.6326 S   0  0  0  0  0  0  0  0  0  0  0  0
   -3.2260    3.4914   11.3804 C   0  0  0  0  0  0  0  0  0  0  0  0
   -3.8390    4.0908   10.3192 C   0  0  0  0  0  0  0  0  0  0  0  0
   -5.2253    5.0405   10.8090 S   0  0  0  0  0  0  0  0  0  0  0  0
   -3.4188    3.9519    8.9603 C   0  0  0  0  0  0  0  0  0  0  0  0
   -2.2302    3.4039    8.5751 C   0  0  0  0  0  0  0  0  0  0  0  0
   -2.0790    3.2838    7.1747 C   0  0  0  0  0  0  0  0  0  0  0  0
   -0.9854    2.7314    6.4825 C   0  0  0  0  0  0  0  0  0  0  0  0
    0.1347    2.1498    7.2305 C   0  0  0  0  0  0  0  0  0  0  0  0
    1.4574    2.4982    6.9631 C   0  0  0  0  0  0  0  0  0  0  0  0
    2.4810    2.0099    7.7452 C   0  0  0  0  0  0  0  0  0  0  0  0
    2.2420    1.1652    8.8323 C   0  0  0  0  0  0  0  0  0  0  0  0
    3.6537    0.7505    9.8056 S   0  0  0  0  0  0  0  0  0  0  0  0
    3.2595   -0.8042   10.6841 C   0  0  0  0  0  0  0  0  0  0  0  0
    3.0426   -1.9620    9.7311 C   0  0  0  0  0  0  0  0  0  0  0  0
    0.9187    0.8051    9.0688 C   0  0  0  0  0  0  0  0  0  0  0  0
    0.5749   -0.0034   10.0988 F   0  0  0  0  0  0  0  0  0  0  0  0
   -0.1133    1.2676    8.2780 C   0  0  0  0  0  0  0  0  0  0  0  0
   -1.0507    2.7687    5.0996 C   0  0  0  0  0  0  0  0  0  0  0  0
   -2.1566    3.3195    4.4052 C   0  0  0  0  0  0  0  0  0  0  0  0
   -3.2487    3.8712    5.0980 C   0  0  0  0  0  0  0  0  0  0  0  0
   -4.3691    4.4422    4.3404 C   0  0  0  0  0  0  0  0  0  0  0  0
   -4.1257    5.3704    3.3273 C   0  0  0  0  0  0  0  0  0  0  0  0
   -5.1510    5.8237    2.5268 C   0  0  0  0  0  0  0  0  0  0  0  0
   -6.4575    5.3777    2.7097 C   0  0  0  0  0  0  0  0  0  0  0  0
   -7.6929    5.9773    1.5926 S   0  0  0  0  0  0  0  0  0  0  0  0
   -8.6586    4.4723    1.1922 C   0  0  0  0  0  0  0  0  0  0  0  0
   -7.7856    3.3562    0.6556 C   0  0  0  0  0  0  0  0  0  0  0  0
   -6.6992    4.5131    3.7728 C   0  0  0  0  0  0  0  0  0  0  0  0
   -5.6785    4.0383    4.5735 C   0  0  0  0  0  0  0  0  0  0  0  0
   -7.9519    4.0884    4.0412 F   0  0  0  0  0  0  0  0  0  0  0  0
   -3.1928    3.8199    6.4809 C   0  0  0  0  0  0  0  0  0  0  0  0
   -4.4067    4.4098    7.5900 S   0  0  0  0  0  0  0  0  0  0  0  0
   -2.0293    3.1565    3.0059 C   0  0  0  0  0  0  0  0  0  0  0  0
   -0.8837    2.5245    2.6243 C   0  0  0  0  0  0  0  0  0  0  0  0
    0.1245    2.0979    3.9929 S   0  0  0  0  0  0  0  0  0  0  0  0
   -0.5310    2.2028    1.2817 C   0  0  0  0  0  0  0  0  0  0  0  0
    0.5326    1.5029    0.7967 C   0  0  0  0  0  0  0  0  0  0  0  0
    0.5080    1.3401   -0.6138 C   0  0  0  0  0  0  0  0  0  0  0  0
    1.4286    0.6658   -1.4352 C   0  0  0  0  0  0  0  0  0  0  0  0
    2.6601    0.0838   -0.8874 C   0  0  0  0  0  0  0  0  0  0  0  0
    3.0222   -1.2339   -1.1603 C   0  0  0  0  0  0  0  0  0  0  0  0
    4.1957   -1.7564   -0.6604 C   0  0  0  0  0  0  0  0  0  0  0  0
    5.0514   -0.9932    0.1312 C   0  0  0  0  0  0  0  0  0  0  0  0
    6.5099   -1.7824    0.7484 S   0  0  0  0  0  0  0  0  0  0  0  0
    7.8068   -0.4992    0.5870 C   0  0  0  0  0  0  0  0  0  0  0  0
    7.9510   -0.0159   -0.8419 C   0  0  0  0  0  0  0  0  0  0  0  0
    4.6642    0.3123    0.4172 C   0  0  0  0  0  0  0  0  0  0  0  0
    5.4242    1.1053    1.2056 F   0  0  0  0  0  0  0  0  0  0  0  0
    3.4995    0.8532   -0.0878 C   0  0  0  0  0  0  0  0  0  0  0  0
    1.1222    0.5909   -2.7855 C   0  0  0  0  0  0  0  0  0  0  0  0
   -0.0245    1.1955   -3.3607 C   0  0  0  0  0  0  0  0  0  0  0  0
   -0.9279    1.8951   -2.5470 C   0  0  0  0  0  0  0  0  0  0  0  0
   -2.1061    2.5919   -3.0775 C   0  0  0  0  0  0  0  0  0  0  0  0
   -1.9932    3.5253   -4.1066 C   0  0  0  0  0  0  0  0  0  0  0  0
   -3.0869    4.2626   -4.5069 C   0  0  0  0  0  0  0  0  0  0  0  0
   -4.3379    4.0887   -3.9157 C   0  0  0  0  0  0  0  0  0  0  0  0
   -5.6581    5.1117   -4.4940 S   0  0  0  0  0  0  0  0  0  0  0  0
   -6.6567    5.4612   -2.9973 C   0  0  0  0  0  0  0  0  0  0  0  0
   -5.8369    6.0721   -1.8791 C   0  0  0  0  0  0  0  0  0  0  0  0
   -4.4491    3.1035   -2.9396 C   0  0  0  0  0  0  0  0  0  0  0  0
   -3.3575    2.3785   -2.5093 C   0  0  0  0  0  0  0  0  0  0  0  0
   -5.6418    2.8241   -2.3668 F   0  0  0  0  0  0  0  0  0  0  0  0
   -0.6441    1.9277   -1.1912 C   0  0  0  0  0  0  0  0  0  0  0  0
   -1.6265    2.7160    0.0103 S   0  0  0  0  0  0  0  0  0  0  0  0
   -0.1209    0.9534   -4.7519 C   0  0  0  0  0  0  0  0  0  0  0  0
    0.9140    0.2155   -5.2547 C   0  0  0  0  0  0  0  0  0  0  0  0
    2.0746   -0.2143   -4.0040 S   0  0  0  0  0  0  0  0  0  0  0  0
    1.1107   -0.2743   -6.5746 C   0  0  0  0  0  0  0  0  0  0  0  0
    2.0766   -1.6921   -6.8104 S   0  0  0  0  0  0  0  0  0  0  0  0
    1.7744   -1.7258   -8.5170 C   0  0  0  0  0  0  0  0  0  0  0  0
    0.9325   -0.6715   -8.8876 C   0  0  0  0  0  0  0  0  0  0  0  0
    0.5799    0.1711   -7.7888 C   0  0  0  0  0  0  0  0  0  0  0  0
   -0.2080    1.3162   -8.0386 C   0  0  0  0  0  0  0  0  0  0  0  0
   -0.6974    1.5727   -9.2849 C   0  0  0  0  0  0  0  0  0  0  0  0
   -1.5312    2.7781   -9.5764 C   0  0  0  0  0  0  0  0  0  0  0  0
   -0.4327    0.6576  -10.3534 C   0  0  0  0  0  0  0  0  0  0  0  0
   -1.0204    0.9834  -11.5363 O   0  0  0  0  0  0  0  0  0  0  0  0
   -0.8032    0.1462  -12.6449 C   0  0  0  0  0  0  0  0  0  0  0  0
    0.3667   -0.4363  -10.1584 C   0  0  0  0  0  0  0  0  0  0  0  0
    2.3143   -2.7793   -9.3012 C   0  0  0  0  0  0  0  0  0  0  0  0
    2.4379   -4.3664   -8.6186 S   0  0  0  0  0  0  0  0  0  0  0  0
    3.0766   -5.0474  -10.0800 C   0  0  0  0  0  0  0  0  0  0  0  0
    3.1919   -4.0667  -11.0718 C   0  0  0  0  0  0  0  0  0  0  0  0
    2.7929   -2.7724  -10.6151 C   0  0  0  0  0  0  0  0  0  0  0  0
    2.9886   -1.6557  -11.4576 C   0  0  0  0  0  0  0  0  0  0  0  0
    3.4535   -1.8111  -12.7294 C   0  0  0  0  0  0  0  0  0  0  0  0
    3.6707   -0.6483  -13.6439 C   0  0  0  0  0  0  0  0  0  0  0  0
    3.7392   -3.1247  -13.2200 C   0  0  0  0  0  0  0  0  0  0  0  0
    4.1489   -3.1667  -14.5172 O   0  0  0  0  0  0  0  0  0  0  0  0
    4.4901   -4.4111  -15.0761 C   0  0  0  0  0  0  0  0  0  0  0  0
    3.6206   -4.2204  -12.4075 C   0  0  0  0  0  0  0  0  0  0  0  0
    3.4093   -6.4287  -10.1054 C   0  0  0  0  0  0  0  0  0  0  0  0
    4.2086   -7.1183  -10.9730 C   0  0  0  0  0  0  0  0  0  0  0  0
    4.3116   -8.5015  -10.6859 C   0  0  0  0  0  0  0  0  0  0  0  0
    5.0255   -9.4720  -11.4064 C   0  0  0  0  0  0  0  0  0  0  0  0
    5.6844   -9.1232  -12.6705 C   0  0  0  0  0  0  0  0  0  0  0  0
    4.9724   -8.4578  -13.6691 C   0  0  0  0  0  0  0  0  0  0  0  0
    5.5864   -8.0923  -14.8470 C   0  0  0  0  0  0  0  0  0  0  0  0
    6.9299   -8.3785  -15.0806 C   0  0  0  0  0  0  0  0  0  0  0  0
    7.6074   -7.8726  -16.6360 S   0  0  0  0  0  0  0  0  0  0  0  0
    9.2618   -7.2234  -16.1939 C   0  0  0  0  0  0  0  0  0  0  0  0
    9.1757   -6.0929  -15.1882 C   0  0  0  0  0  0  0  0  0  0  0  0
    7.6157   -9.0824  -14.0958 C   0  0  0  0  0  0  0  0  0  0  0  0
    8.9085   -9.4313  -14.2716 F   0  0  0  0  0  0  0  0  0  0  0  0
    7.0168   -9.4422  -12.9047 C   0  0  0  0  0  0  0  0  0  0  0  0
    5.0349  -10.7555  -10.8802 C   0  0  0  0  0  0  0  0  0  0  0  0
    4.3251  -11.1138   -9.7089 C   0  0  0  0  0  0  0  0  0  0  0  0
    3.5743  -10.1523   -9.0142 C   0  0  0  0  0  0  0  0  0  0  0  0
    2.7811  -10.5021   -7.8289 C   0  0  0  0  0  0  0  0  0  0  0  0
    1.8797  -11.5653   -7.8586 C   0  0  0  0  0  0  0  0  0  0  0  0
    1.1353  -11.8852   -6.7440 C   0  0  0  0  0  0  0  0  0  0  0  0
    1.2492  -11.1585   -5.5593 C   0  0  0  0  0  0  0  0  0  0  0  0
    0.2006  -11.6463   -4.2216 S   0  0  0  0  0  0  0  0  0  0  0  0
    1.2054  -11.3724   -2.7159 C   0  0  0  0  0  0  0  0  0  0  0  0
    2.4991  -12.1609   -2.7424 C   0  0  0  0  0  0  0  0  0  0  0  0
    2.1296  -10.0812   -5.5550 C   0  0  0  0  0  0  0  0  0  0  0  0
    2.8939   -9.7600   -6.6587 C   0  0  0  0  0  0  0  0  0  0  0  0
    2.2730   -9.3043   -4.4586 F   0  0  0  0  0  0  0  0  0  0  0  0
    3.6034   -8.8591   -9.5133 C   0  0  0  0  0  0  0  0  0  0  0  0
    2.7648   -7.4816   -8.8492 S   0  0  0  0  0  0  0  0  0  0  0  0
    4.5079  -12.4922   -9.3876 C   0  0  0  0  0  0  0  0  0  0  0  0
    5.2841  -13.1418  -10.2778 C   0  0  0  0  0  0  0  0  0  0  0  0
    5.8556  -12.1350  -11.5648 S   0  0  0  0  0  0  0  0  0  0  0  0
   -5.6495    4.1481   18.1426 H   0  0  0  0  0  0  0  0  0  0  0  0
   -6.9040    5.3261   16.1873 H   0  0  0  0  0  0  0  0  0  0  0  0
   -6.2277    7.3267   14.8525 H   0  0  0  0  0  0  0  0  0  0  0  0
   -8.1327    8.8124   14.5994 H   0  0  0  0  0  0  0  0  0  0  0  0
   -9.8424   10.0789   14.5886 H   0  0  0  0  0  0  0  0  0  0  0  0
  -11.0636   10.7718   13.5139 H   0  0  0  0  0  0  0  0  0  0  0  0
   -9.3749   11.1228   11.7373 H   0  0  0  0  0  0  0  0  0  0  0  0
   -8.1179   10.4038   12.7435 H   0  0  0  0  0  0  0  0  0  0  0  0
   -8.8574   11.9383   13.2179 H   0  0  0  0  0  0  0  0  0  0  0  0
   -7.8579    4.7102   11.8785 H   0  0  0  0  0  0  0  0  0  0  0  0
   -0.9564    3.8470   12.9394 H   0  0  0  0  0  0  0  0  0  0  0  0
    1.0205    2.3898   13.0359 H   0  0  0  0  0  0  0  0  0  0  0  0
    1.1107   -0.4935   16.4040 H   0  0  0  0  0  0  0  0  0  0  0  0
    0.8325   -1.9769   15.4553 H   0  0  0  0  0  0  0  0  0  0  0  0
    3.2964   -2.2024   15.1039 H   0  0  0  0  0  0  0  0  0  0  0  0
    2.9115   -2.1842   16.8293 H   0  0  0  0  0  0  0  0  0  0  0  0
    3.5711   -0.7385   16.0514 H   0  0  0  0  0  0  0  0  0  0  0  0
   -3.1686    0.9271   15.1589 H   0  0  0  0  0  0  0  0  0  0  0  0
   -2.3878    2.8282   11.2796 H   0  0  0  0  0  0  0  0  0  0  0  0
   -1.4671    3.1171    9.2732 H   0  0  0  0  0  0  0  0  0  0  0  0
    1.6804    3.1741    6.1522 H   0  0  0  0  0  0  0  0  0  0  0  0
    3.5020    2.2929    7.5413 H   0  0  0  0  0  0  0  0  0  0  0  0
    4.1463   -0.9635   11.2982 H   0  0  0  0  0  0  0  0  0  0  0  0
    2.4075   -0.6380   11.3390 H   0  0  0  0  0  0  0  0  0  0  0  0
    2.8976   -2.8781   10.2997 H   0  0  0  0  0  0  0  0  0  0  0  0
    3.9040   -2.0868    9.0780 H   0  0  0  0  0  0  0  0  0  0  0  0
    2.1616   -1.8005    9.1143 H   0  0  0  0  0  0  0  0  0  0  0  0
   -1.1152    0.9295    8.4941 H   0  0  0  0  0  0  0  0  0  0  0  0
   -3.1215    5.7323    3.1673 H   0  0  0  0  0  0  0  0  0  0  0  0
   -4.9552    6.5233    1.7290 H   0  0  0  0  0  0  0  0  0  0  0  0
   -9.2125    4.1666    2.0774 H   0  0  0  0  0  0  0  0  0  0  0  0
   -9.3620    4.8216    0.4362 H   0  0  0  0  0  0  0  0  0  0  0  0
   -8.4108    2.5187    0.3531 H   0  0  0  0  0  0  0  0  0  0  0  0
   -7.0902    3.0060    1.4163 H   0  0  0  0  0  0  0  0  0  0  0  0
   -7.2124    3.6902   -0.2058 H   0  0  0  0  0  0  0  0  0  0  0  0
   -5.9172    3.3405    5.3608 H   0  0  0  0  0  0  0  0  0  0  0  0
   -2.7779    3.4678    2.2997 H   0  0  0  0  0  0  0  0  0  0  0  0
    1.2948    1.0922    1.4348 H   0  0  0  0  0  0  0  0  0  0  0  0
    2.3755   -1.8549   -1.7601 H   0  0  0  0  0  0  0  0  0  0  0  0
    4.4741   -2.7758   -0.8767 H   0  0  0  0  0  0  0  0  0  0  0  0
    8.7079   -1.0132    0.9215 H   0  0  0  0  0  0  0  0  0  0  0  0
    7.5881    0.3153    1.2739 H   0  0  0  0  0  0  0  0  0  0  0  0
    8.1405   -0.8528   -1.5110 H   0  0  0  0  0  0  0  0  0  0  0  0
    7.0474    0.4925   -1.1733 H   0  0  0  0  0  0  0  0  0  0  0  0
    8.7827    0.6825   -0.9100 H   0  0  0  0  0  0  0  0  0  0  0  0
    3.2622    1.8808    0.1412 H   0  0  0  0  0  0  0  0  0  0  0  0
   -1.0296    3.7040   -4.5597 H   0  0  0  0  0  0  0  0  0  0  0  0
   -2.9901    5.0082   -5.2809 H   0  0  0  0  0  0  0  0  0  0  0  0
   -7.1571    4.5458   -2.6883 H   0  0  0  0  0  0  0  0  0  0  0  0
   -7.4044    6.1651   -3.3633 H   0  0  0  0  0  0  0  0  0  0  0  0
   -5.3265    6.9680   -2.2266 H   0  0  0  0  0  0  0  0  0  0  0  0
   -6.4917    6.3414   -1.0521 H   0  0  0  0  0  0  0  0  0  0  0  0
   -5.0899    5.3707   -1.5111 H   0  0  0  0  0  0  0  0  0  0  0  0
   -3.5028    1.6328   -1.7434 H   0  0  0  0  0  0  0  0  0  0  0  0
   -0.9713    1.2576   -5.3325 H   0  0  0  0  0  0  0  0  0  0  0  0
   -0.4099    2.0068   -7.2359 H   0  0  0  0  0  0  0  0  0  0  0  0
   -1.6532    3.3904   -8.6872 H   0  0  0  0  0  0  0  0  0  0  0  0
   -1.0680    3.3721  -10.3625 H   0  0  0  0  0  0  0  0  0  0  0  0
   -2.5117    2.4730   -9.9384 H   0  0  0  0  0  0  0  0  0  0  0  0
   -1.3493    0.6016  -13.4694 H   0  0  0  0  0  0  0  0  0  0  0  0
   -1.1889   -0.8629  -12.4681 H   0  0  0  0  0  0  0  0  0  0  0  0
    0.2595    0.0852  -12.9015 H   0  0  0  0  0  0  0  0  0  0  0  0
    0.5648   -1.1405  -10.9483 H   0  0  0  0  0  0  0  0  0  0  0  0
    2.7891   -0.6675  -11.0724 H   0  0  0  0  0  0  0  0  0  0  0  0
    3.4195    0.2861  -13.1488 H   0  0  0  0  0  0  0  0  0  0  0  0
    4.7105   -0.6144  -13.9649 H   0  0  0  0  0  0  0  0  0  0  0  0
    3.0611   -0.7582  -14.5398 H   0  0  0  0  0  0  0  0  0  0  0  0
    4.7968   -4.2015  -16.0996 H   0  0  0  0  0  0  0  0  0  0  0  0
    3.6350   -5.0946  -15.0876 H   0  0  0  0  0  0  0  0  0  0  0  0
    5.3207   -4.8807  -14.5384 H   0  0  0  0  0  0  0  0  0  0  0  0
    3.8350   -5.2068  -12.7769 H   0  0  0  0  0  0  0  0  0  0  0  0
    4.7721   -6.6572  -11.7609 H   0  0  0  0  0  0  0  0  0  0  0  0
    3.9259   -8.2392  -13.5180 H   0  0  0  0  0  0  0  0  0  0  0  0
    5.0350   -7.5747  -15.6171 H   0  0  0  0  0  0  0  0  0  0  0  0
    9.6559   -6.8726  -17.1476 H   0  0  0  0  0  0  0  0  0  0  0  0
    9.8799   -8.0430  -15.8347 H   0  0  0  0  0  0  0  0  0  0  0  0
    8.7786   -6.4480  -14.2387 H   0  0  0  0  0  0  0  0  0  0  0  0
   10.1681   -5.6829  -15.0123 H   0  0  0  0  0  0  0  0  0  0  0  0
    8.5300   -5.2994  -15.5594 H   0  0  0  0  0  0  0  0  0  0  0  0
    7.6036   -9.9656  -12.1663 H   0  0  0  0  0  0  0  0  0  0  0  0
    1.7539  -12.1329   -8.7680 H   0  0  0  0  0  0  0  0  0  0  0  0
    0.4402  -12.7101   -6.7696 H   0  0  0  0  0  0  0  0  0  0  0  0
    0.5503  -11.7196   -1.9167 H   0  0  0  0  0  0  0  0  0  0  0  0
    1.3791  -10.3058   -2.5932 H   0  0  0  0  0  0  0  0  0  0  0  0
    3.1496  -11.8133   -3.5428 H   0  0  0  0  0  0  0  0  0  0  0  0
    2.2985  -13.2195   -2.8943 H   0  0  0  0  0  0  0  0  0  0  0  0
    3.0229  -12.0355   -1.7969 H   0  0  0  0  0  0  0  0  0  0  0  0
    3.5756   -8.9269   -6.5882 H   0  0  0  0  0  0  0  0  0  0  0  0
    4.0813  -12.9568   -8.5172 H   0  0  0  0  0  0  0  0  0  0  0  0
    5.5774  -14.1734  -10.2688 H   0  0  0  0  0  0  0  0  0  0  0  0
  1  2  2  0  0  0  0
  2  3  1  0  0  0  0
  3  4  2  0  0  0  0
  4  5  1  0  0  0  0
  5  6  2  0  0  0  0
  6  7  1  0  0  0  0
  7  8  2  0  0  0  0
  8  9  1  0  0  0  0
  9 10  1  0  0  0  0
 10 11  1  0  0  0  0
  8 12  1  0  0  0  0
 12 13  1  0  0  0  0
 12 14  2  0  0  0  0
  4 15  1  0  0  0  0
 15 16  2  0  0  0  0
 16 17  1  0  0  0  0
 17 18  1  0  0  0  0
 18 19  2  0  0  0  0
 19 20  1  0  0  0  0
 20 21  2  0  0  0  0
 21 22  1  0  0  0  0
 22 23  1  0  0  0  0
 23 24  1  0  0  0  0
 21 25  1  0  0  0  0
 25 26  2  0  0  0  0
 25 27  1  0  0  0  0
 17 28  2  0  0  0  0
 28 29  1  0  0  0  0
 16 30  1  0  0  0  0
 30 31  2  0  0  0  0
 31 32  1  0  0  0  0
 31 33  1  0  0  0  0
 33 34  2  0  0  0  0
 34 35  1  0  0  0  0
 35 36  2  0  0  0  0
 36 37  1  0  0  0  0
 37 38  2  0  0  0  0
 38 39  1  0  0  0  0
 39 40  2  0  0  0  0
 40 41  1  0  0  0  0
 41 42  1  0  0  0  0
 42 43  1  0  0  0  0
 40 44  1  0  0  0  0
 44 45  1  0  0  0  0
 44 46  2  0  0  0  0
 36 47  1  0  0  0  0
 47 48  2  0  0  0  0
 48 49  1  0  0  0  0
 49 50  1  0  0  0  0
 50 51  2  0  0  0  0
 51 52  1  0  0  0  0
 52 53  2  0  0  0  0
 53 54  1  0  0  0  0
 54 55  1  0  0  0  0
 55 56  1  0  0  0  0
 53 57  1  0  0  0  0
 57 58  2  0  0  0  0
 57 59  1  0  0  0  0
 49 60  2  0  0  0  0
 60 61  1  0  0  0  0
 48 62  1  0  0  0  0
 62 63  2  0  0  0  0
 63 64  1  0  0  0  0
 63 65  1  0  0  0  0
 65 66  2  0  0  0  0
 66 67  1  0  0  0  0
 67 68  2  0  0  0  0
 68 69  1  0  0  0  0
 69 70  2  0  0  0  0
 70 71  1  0  0  0  0
 71 72  2  0  0  0  0
 72 73  1  0  0  0  0
 73 74  1  0  0  0  0
 74 75  1  0  0  0  0
 72 76  1  0  0  0  0
 76 77  1  0  0  0  0
 76 78  2  0  0  0  0
 68 79  1  0  0  0  0
 79 80  2  0  0  0  0
 80 81  1  0  0  0  0
 81 82  1  0  0  0  0
 82 83  2  0  0  0  0
 83 84  1  0  0  0  0
 84 85  2  0  0  0  0
 85 86  1  0  0  0  0
 86 87  1  0  0  0  0
 87 88  1  0  0  0  0
 85 89  1  0  0  0  0
 89 90  2  0  0  0  0
 89 91  1  0  0  0  0
 81 92  2  0  0  0  0
 92 93  1  0  0  0  0
 80 94  1  0  0  0  0
 94 95  2  0  0  0  0
 95 96  1  0  0  0  0
 95 97  1  0  0  0  0
 97 98  1  0  0  0  0
 98 99  1  0  0  0  0
 99100  2  0  0  0  0
100101  1  0  0  0  0
101102  1  0  0  0  0
102103  2  0  0  0  0
103104  1  0  0  0  0
103105  1  0  0  0  0
105106  1  0  0  0  0
106107  1  0  0  0  0
105108  2  0  0  0  0
 99109  1  0  0  0  0
109110  1  0  0  0  0
110111  1  0  0  0  0
111112  2  0  0  0  0
112113  1  0  0  0  0
113114  1  0  0  0  0
114115  2  0  0  0  0
115116  1  0  0  0  0
115117  1  0  0  0  0
117118  1  0  0  0  0
118119  1  0  0  0  0
117120  2  0  0  0  0
111121  1  0  0  0  0
121122  2  0  0  0  0
122123  1  0  0  0  0
123124  2  0  0  0  0
124125  1  0  0  0  0
125126  2  0  0  0  0
126127  1  0  0  0  0
127128  2  0  0  0  0
128129  1  0  0  0  0
129130  1  0  0  0  0
130131  1  0  0  0  0
128132  1  0  0  0  0
132133  1  0  0  0  0
132134  2  0  0  0  0
124135  1  0  0  0  0
135136  2  0  0  0  0
136137  1  0  0  0  0
137138  1  0  0  0  0
138139  2  0  0  0  0
139140  1  0  0  0  0
140141  2  0  0  0  0
141142  1  0  0  0  0
142143  1  0  0  0  0
143144  1  0  0  0  0
141145  1  0  0  0  0
145146  2  0  0  0  0
145147  1  0  0  0  0
137148  2  0  0  0  0
148149  1  0  0  0  0
136150  1  0  0  0  0
150151  2  0  0  0  0
151152  1  0  0  0  0
 29  1  1  0  0  0  0
 61 33  1  0  0  0  0
 93 65  1  0  0  0  0
101 97  2  0  0  0  0
113109  2  0  0  0  0
149121  1  0  0  0  0
 28  3  1  0  0  0  0
 60 35  1  0  0  0  0
 92 67  1  0  0  0  0
108100  1  0  0  0  0
120112  1  0  0  0  0
148123  1  0  0  0  0
 14  5  1  0  0  0  0
 32 15  1  0  0  0  0
 46 37  1  0  0  0  0
 64 47  1  0  0  0  0
 78 69  1  0  0  0  0
 96 79  1  0  0  0  0
134125  1  0  0  0  0
152135  1  0  0  0  0
 26 18  1  0  0  0  0
 58 50  1  0  0  0  0
 90 82  1  0  0  0  0
146138  1  0  0  0  0
  1153  1  0  0  0  0
  2154  1  0  0  0  0
  6155  1  0  0  0  0
  7156  1  0  0  0  0
 10157  1  0  0  0  0
 10158  1  0  0  0  0
 11159  1  0  0  0  0
 11160  1  0  0  0  0
 11161  1  0  0  0  0
 14162  1  0  0  0  0
 19163  1  0  0  0  0
 20164  1  0  0  0  0
 23165  1  0  0  0  0
 23166  1  0  0  0  0
 24167  1  0  0  0  0
 24168  1  0  0  0  0
 24169  1  0  0  0  0
 26170  1  0  0  0  0
 30171  1  0  0  0  0
 34172  1  0  0  0  0
 38173  1  0  0  0  0
 39174  1  0  0  0  0
 42175  1  0  0  0  0
 42176  1  0  0  0  0
 43177  1  0  0  0  0
 43178  1  0  0  0  0
 43179  1  0  0  0  0
 46180  1  0  0  0  0
 51181  1  0  0  0  0
 52182  1  0  0  0  0
 55183  1  0  0  0  0
 55184  1  0  0  0  0
 56185  1  0  0  0  0
 56186  1  0  0  0  0
 56187  1  0  0  0  0
 58188  1  0  0  0  0
 62189  1  0  0  0  0
 66190  1  0  0  0  0
 70191  1  0  0  0  0
 71192  1  0  0  0  0
 74193  1  0  0  0  0
 74194  1  0  0  0  0
 75195  1  0  0  0  0
 75196  1  0  0  0  0
 75197  1  0  0  0  0
 78198  1  0  0  0  0
 83199  1  0  0  0  0
 84200  1  0  0  0  0
 87201  1  0  0  0  0
 87202  1  0  0  0  0
 88203  1  0  0  0  0
 88204  1  0  0  0  0
 88205  1  0  0  0  0
 90206  1  0  0  0  0
 94207  1  0  0  0  0
102208  1  0  0  0  0
104209  1  0  0  0  0
104210  1  0  0  0  0
104211  1  0  0  0  0
107212  1  0  0  0  0
107213  1  0  0  0  0
107214  1  0  0  0  0
108215  1  0  0  0  0
114216  1  0  0  0  0
116217  1  0  0  0  0
116218  1  0  0  0  0
116219  1  0  0  0  0
119220  1  0  0  0  0
119221  1  0  0  0  0
119222  1  0  0  0  0
120223  1  0  0  0  0
122224  1  0  0  0  0
126225  1  0  0  0  0
127226  1  0  0  0  0
130227  1  0  0  0  0
130228  1  0  0  0  0
131229  1  0  0  0  0
131230  1  0  0  0  0
131231  1  0  0  0  0
134232  1  0  0  0  0
139233  1  0  0  0  0
140234  1  0  0  0  0
143235  1  0  0  0  0
143236  1  0  0  0  0
144237  1  0  0  0  0
144238  1  0  0  0  0
144239  1  0  0  0  0
146240  1  0  0  0  0
150241  1  0  0  0  0
151242  1  0  0  0  0
M  END
