
  xtb     03042212593D
 energy: -177.388778298463 gnorm: 0.000369640415 xtb: 6.4.1 (unknown)
110117  0     0  0            999 V2000
    7.8950   -4.8068    7.4972 C   0  0  0  0  0  0  0  0  0  0  0  0
    7.6181   -4.0730    6.3850 N   0  0  0  0  0  0  0  0  0  0  0  0
    6.2785   -3.8660    6.2814 C   0  0  0  0  0  0  0  0  0  0  0  0
    5.6747   -4.4999    7.3807 C   0  0  0  0  0  0  0  0  0  0  0  0
    6.7223   -5.0886    8.1349 C   0  0  0  0  0  0  0  0  0  0  0  0
    4.2501   -4.5363    7.6722 C   0  0  0  0  0  0  0  0  0  0  0  0
    3.4093   -3.9980    6.9730 O   0  0  0  0  0  0  0  0  0  0  0  0
    3.8610   -5.2975    8.9195 C   0  0  0  0  0  0  0  0  0  0  0  0
    5.6439   -3.1362    5.2350 C   0  0  0  0  0  0  0  0  0  0  0  0
    6.2590   -2.5533    4.1840 C   0  0  0  0  0  0  0  0  0  0  0  0
    5.5913   -1.8274    3.1532 C   0  0  0  0  0  0  0  0  0  0  0  0
    4.2363   -1.6289    3.1009 N   0  0  0  0  0  0  0  0  0  0  0  0
    3.8917   -0.9193    1.9990 C   0  0  0  0  0  0  0  0  0  0  0  0
    5.0808   -0.6108    1.3112 C   0  0  0  0  0  0  0  0  0  0  0  0
    6.1324   -1.1974    2.0476 C   0  0  0  0  0  0  0  0  0  0  0  0
    5.2310    0.2556    0.1474 C   0  0  0  0  0  0  0  0  0  0  0  0
    4.3211    0.9062   -0.3288 O   0  0  0  0  0  0  0  0  0  0  0  0
    6.6262    0.3209   -0.4352 C   0  0  0  0  0  0  0  0  0  0  0  0
    2.5198   -0.5551    1.7619 C   0  0  0  0  0  0  0  0  0  0  0  0
    1.9075   -0.4731    0.5681 C   0  0  0  0  0  0  0  0  0  0  0  0
    2.4380   -0.9403   -0.6789 C   0  0  0  0  0  0  0  0  0  0  0  0
    2.0110   -0.4280   -1.8708 N   0  0  0  0  0  0  0  0  0  0  0  0
    2.5984   -1.0645   -2.9133 C   0  0  0  0  0  0  0  0  0  0  0  0
    3.4380   -2.0613   -2.3624 C   0  0  0  0  0  0  0  0  0  0  0  0
    3.3095   -1.9752   -0.9640 C   0  0  0  0  0  0  0  0  0  0  0  0
    4.2829   -2.9810   -3.1081 C   0  0  0  0  0  0  0  0  0  0  0  0
    4.2982   -3.0470   -4.3232 O   0  0  0  0  0  0  0  0  0  0  0  0
    5.1787   -3.8633   -2.2631 C   0  0  0  0  0  0  0  0  0  0  0  0
    2.4269   -0.7639   -4.2919 C   0  0  0  0  0  0  0  0  0  0  0  0
    1.4001   -0.1733   -4.9636 C   0  0  0  0  0  0  0  0  0  0  0  0
    0.0955    0.2023   -4.5691 C   0  0  0  0  0  0  0  0  0  0  0  0
   -0.5964   -0.1125   -3.0105 S   0  0  0  0  0  0  0  0  0  0  0  0
   -2.1602    0.5313   -3.4235 C   0  0  0  0  0  0  0  0  0  0  0  0
   -2.1510    0.9476   -4.7706 C   0  0  0  0  0  0  0  0  0  0  0  0
   -0.8854    0.7694   -5.4035 C   0  0  0  0  0  0  0  0  0  0  0  0
   -0.7281    1.1676   -6.7460 C   0  0  0  0  0  0  0  0  0  0  0  0
   -1.7662    1.7024   -7.4518 C   0  0  0  0  0  0  0  0  0  0  0  0
   -1.6233    2.1335   -8.8758 C   0  0  0  0  0  0  0  0  0  0  0  0
   -3.0374    1.8486   -6.8217 C   0  0  0  0  0  0  0  0  0  0  0  0
   -4.0098    2.3714   -7.6194 O   0  0  0  0  0  0  0  0  0  0  0  0
   -5.2905    2.5682   -7.0765 C   0  0  0  0  0  0  0  0  0  0  0  0
   -3.2220    1.4767   -5.5150 C   0  0  0  0  0  0  0  0  0  0  0  0
   -3.1541    0.6533   -2.4321 C   0  0  0  0  0  0  0  0  0  0  0  0
   -4.5671    1.6344   -2.7059 S   0  0  0  0  0  0  0  0  0  0  0  0
   -5.1572    1.4482   -1.0806 C   0  0  0  0  0  0  0  0  0  0  0  0
   -4.3059    0.6137   -0.3563 C   0  0  0  0  0  0  0  0  0  0  0  0
   -3.1798    0.1606   -1.1124 C   0  0  0  0  0  0  0  0  0  0  0  0
   -2.2693   -0.7179   -0.4896 C   0  0  0  0  0  0  0  0  0  0  0  0
   -2.4283   -1.1075    0.8087 C   0  0  0  0  0  0  0  0  0  0  0  0
   -1.4662   -2.0362    1.4774 C   0  0  0  0  0  0  0  0  0  0  0  0
   -3.5546   -0.6442    1.5542 C   0  0  0  0  0  0  0  0  0  0  0  0
   -3.6194   -1.1082    2.8331 O   0  0  0  0  0  0  0  0  0  0  0  0
   -4.7037   -0.7129    3.6344 C   0  0  0  0  0  0  0  0  0  0  0  0
   -4.4786    0.1825    0.9761 C   0  0  0  0  0  0  0  0  0  0  0  0
   -6.3415    2.1399   -0.6980 C   0  0  0  0  0  0  0  0  0  0  0  0
   -7.1941    2.6579   -1.6361 N   0  0  0  0  0  0  0  0  0  0  0  0
   -8.2408    3.3109   -1.0659 C   0  0  0  0  0  0  0  0  0  0  0  0
   -8.0584    3.2181    0.3284 C   0  0  0  0  0  0  0  0  0  0  0  0
   -6.8664    2.4838    0.5336 C   0  0  0  0  0  0  0  0  0  0  0  0
   -8.8753    3.7472    1.4157 C   0  0  0  0  0  0  0  0  0  0  0  0
   -9.8647    4.4368    1.2671 O   0  0  0  0  0  0  0  0  0  0  0  0
   -8.4078    3.3844    2.8113 C   0  0  0  0  0  0  0  0  0  0  0  0
   -9.2204    3.8863   -1.9490 C   0  0  0  0  0  0  0  0  0  0  0  0
  -10.3120    4.5778   -1.6292 C   0  0  0  0  0  0  0  0  0  0  0  0
    8.9019   -5.0734    7.7520 H   0  0  0  0  0  0  0  0  0  0  0  0
    8.3033   -3.7292    5.7333 H   0  0  0  0  0  0  0  0  0  0  0  0
    6.6219   -5.6522    9.0401 H   0  0  0  0  0  0  0  0  0  0  0  0
    4.1846   -6.3326    8.8376 H   0  0  0  0  0  0  0  0  0  0  0  0
    4.3394   -4.8534    9.7893 H   0  0  0  0  0  0  0  0  0  0  0  0
    2.7817   -5.2641    9.0430 H   0  0  0  0  0  0  0  0  0  0  0  0
    4.5715   -3.0789    5.3456 H   0  0  0  0  0  0  0  0  0  0  0  0
    7.3330   -2.6101    4.0643 H   0  0  0  0  0  0  0  0  0  0  0  0
    3.5809   -1.9882    3.7768 H   0  0  0  0  0  0  0  0  0  0  0  0
    7.1774   -1.1522    1.8145 H   0  0  0  0  0  0  0  0  0  0  0  0
    6.6065    0.9137   -1.3458 H   0  0  0  0  0  0  0  0  0  0  0  0
    7.3040    0.7857    0.2775 H   0  0  0  0  0  0  0  0  0  0  0  0
    6.9887   -0.6793   -0.6592 H   0  0  0  0  0  0  0  0  0  0  0  0
    1.9551   -0.3119    2.6541 H   0  0  0  0  0  0  0  0  0  0  0  0
    0.9120   -0.0498    0.5203 H   0  0  0  0  0  0  0  0  0  0  0  0
    1.4923    0.4317   -1.9443 H   0  0  0  0  0  0  0  0  0  0  0  0
    3.7784   -2.6077   -0.2375 H   0  0  0  0  0  0  0  0  0  0  0  0
    4.5683   -4.5324   -1.6605 H   0  0  0  0  0  0  0  0  0  0  0  0
    5.8227   -4.4516   -2.9115 H   0  0  0  0  0  0  0  0  0  0  0  0
    5.7851   -3.2550   -1.5965 H   0  0  0  0  0  0  0  0  0  0  0  0
    3.2498   -1.1194   -4.8982 H   0  0  0  0  0  0  0  0  0  0  0  0
    1.5745   -0.0213   -6.0213 H   0  0  0  0  0  0  0  0  0  0  0  0
    0.2308    1.0488   -7.2267 H   0  0  0  0  0  0  0  0  0  0  0  0
   -0.6105    1.9668   -9.2320 H   0  0  0  0  0  0  0  0  0  0  0  0
   -1.8687    3.1901   -8.9719 H   0  0  0  0  0  0  0  0  0  0  0  0
   -2.3204    1.5815   -9.5043 H   0  0  0  0  0  0  0  0  0  0  0  0
   -5.2634    3.2544   -6.2234 H   0  0  0  0  0  0  0  0  0  0  0  0
   -5.7458    1.6218   -6.7661 H   0  0  0  0  0  0  0  0  0  0  0  0
   -5.8851    3.0085   -7.8756 H   0  0  0  0  0  0  0  0  0  0  0  0
   -4.1888    1.5680   -5.0534 H   0  0  0  0  0  0  0  0  0  0  0  0
   -1.4380   -1.1181   -1.0453 H   0  0  0  0  0  0  0  0  0  0  0  0
   -0.6605   -2.3148    0.8035 H   0  0  0  0  0  0  0  0  0  0  0  0
   -1.9852   -2.9344    1.8086 H   0  0  0  0  0  0  0  0  0  0  0  0
   -1.0462   -1.5630    2.3634 H   0  0  0  0  0  0  0  0  0  0  0  0
   -4.7317    0.3743    3.7641 H   0  0  0  0  0  0  0  0  0  0  0  0
   -4.5448   -1.1862    4.6020 H   0  0  0  0  0  0  0  0  0  0  0  0
   -5.6574   -1.0531    3.2176 H   0  0  0  0  0  0  0  0  0  0  0  0
   -5.3595    0.4969    1.5058 H   0  0  0  0  0  0  0  0  0  0  0  0
   -7.0587    2.5604   -2.6302 H   0  0  0  0  0  0  0  0  0  0  0  0
   -6.4195    2.2766    1.4824 H   0  0  0  0  0  0  0  0  0  0  0  0
   -8.3510    2.3046    2.9248 H   0  0  0  0  0  0  0  0  0  0  0  0
   -9.1132    3.7869    3.5339 H   0  0  0  0  0  0  0  0  0  0  0  0
   -7.4250    3.8115    2.9978 H   0  0  0  0  0  0  0  0  0  0  0  0
   -8.9975    3.7095   -2.9977 H   0  0  0  0  0  0  0  0  0  0  0  0
  -10.5728    4.7834   -0.6076 H   0  0  0  0  0  0  0  0  0  0  0  0
  -10.9668    4.9536   -2.3970 H   0  0  0  0  0  0  0  0  0  0  0  0
  1  2  1  0  0  0  0
  2  3  1  0  0  0  0
  3  4  2  0  0  0  0
  4  5  1  0  0  0  0
  4  6  1  0  0  0  0
  6  7  2  0  0  0  0
  6  8  1  0  0  0  0
  3  9  1  0  0  0  0
  9 10  2  0  0  0  0
 10 11  1  0  0  0  0
 11 12  1  0  0  0  0
 12 13  1  0  0  0  0
 13 14  2  0  0  0  0
 14 15  1  0  0  0  0
 14 16  1  0  0  0  0
 16 17  2  0  0  0  0
 16 18  1  0  0  0  0
 13 19  1  0  0  0  0
 19 20  2  0  0  0  0
 20 21  1  0  0  0  0
 21 22  1  0  0  0  0
 22 23  1  0  0  0  0
 23 24  2  0  0  0  0
 24 25  1  0  0  0  0
 24 26  1  0  0  0  0
 26 27  2  0  0  0  0
 26 28  1  0  0  0  0
 23 29  1  0  0  0  0
 29 30  2  0  0  0  0
 30 31  1  0  0  0  0
 31 32  1  0  0  0  0
 32 33  1  0  0  0  0
 33 34  2  0  0  0  0
 34 35  1  0  0  0  0
 35 36  1  0  0  0  0
 36 37  2  0  0  0  0
 37 38  1  0  0  0  0
 37 39  1  0  0  0  0
 39 40  1  0  0  0  0
 40 41  1  0  0  0  0
 39 42  2  0  0  0  0
 33 43  1  0  0  0  0
 43 44  1  0  0  0  0
 44 45  1  0  0  0  0
 45 46  2  0  0  0  0
 46 47  1  0  0  0  0
 47 48  1  0  0  0  0
 48 49  2  0  0  0  0
 49 50  1  0  0  0  0
 49 51  1  0  0  0  0
 51 52  1  0  0  0  0
 52 53  1  0  0  0  0
 51 54  2  0  0  0  0
 45 55  1  0  0  0  0
 55 56  1  0  0  0  0
 56 57  1  0  0  0  0
 57 58  2  0  0  0  0
 58 59  1  0  0  0  0
 58 60  1  0  0  0  0
 60 61  2  0  0  0  0
 60 62  1  0  0  0  0
 57 63  1  0  0  0  0
 63 64  2  0  0  0  0
  5  1  2  0  0  0  0
 15 11  2  0  0  0  0
 25 21  2  0  0  0  0
 35 31  2  0  0  0  0
 47 43  2  0  0  0  0
 59 55  2  0  0  0  0
 42 34  1  0  0  0  0
 54 46  1  0  0  0  0
  1 65  1  0  0  0  0
  2 66  1  0  0  0  0
  5 67  1  0  0  0  0
  8 68  1  0  0  0  0
  8 69  1  0  0  0  0
  8 70  1  0  0  0  0
  9 71  1  0  0  0  0
 10 72  1  0  0  0  0
 12 73  1  0  0  0  0
 15 74  1  0  0  0  0
 18 75  1  0  0  0  0
 18 76  1  0  0  0  0
 18 77  1  0  0  0  0
 19 78  1  0  0  0  0
 20 79  1  0  0  0  0
 22 80  1  0  0  0  0
 25 81  1  0  0  0  0
 28 82  1  0  0  0  0
 28 83  1  0  0  0  0
 28 84  1  0  0  0  0
 29 85  1  0  0  0  0
 30 86  1  0  0  0  0
 36 87  1  0  0  0  0
 38 88  1  0  0  0  0
 38 89  1  0  0  0  0
 38 90  1  0  0  0  0
 41 91  1  0  0  0  0
 41 92  1  0  0  0  0
 41 93  1  0  0  0  0
 42 94  1  0  0  0  0
 48 95  1  0  0  0  0
 50 96  1  0  0  0  0
 50 97  1  0  0  0  0
 50 98  1  0  0  0  0
 53 99  1  0  0  0  0
 53100  1  0  0  0  0
 53101  1  0  0  0  0
 54102  1  0  0  0  0
 56103  1  0  0  0  0
 59104  1  0  0  0  0
 62105  1  0  0  0  0
 62106  1  0  0  0  0
 62107  1  0  0  0  0
 63108  1  0  0  0  0
 64109  1  0  0  0  0
 64110  1  0  0  0  0
M  END
