
  xtb     03032220293D
 energy: -192.929175100162 gnorm: 0.000639148117 xtb: 6.4.1 (unknown)
110117  0     0  0            999 V2000
    6.4763    0.9412   -2.4163 C   0  0  0  0  0  0  0  0  0  0  0  0
    6.3190   -0.4702   -3.3650 S   0  0  0  0  0  0  0  0  0  0  0  0
    4.6409   -0.1275   -3.6232 C   0  0  0  0  0  0  0  0  0  0  0  0
    3.8245   -0.9896   -4.4633 C   0  0  0  0  0  0  0  0  0  0  0  0
    2.6479   -0.8102   -4.6849 O   0  0  0  0  0  0  0  0  0  0  0  0
    4.5398   -2.0071   -4.9624 O   0  0  0  0  0  0  0  0  0  0  0  0
    3.8705   -2.9361   -5.8011 C   0  0  0  0  0  0  0  0  0  0  0  0
    4.2465    1.0131   -2.9775 C   0  0  0  0  0  0  0  0  0  0  0  0
    5.3004    1.6384   -2.2701 C   0  0  0  0  0  0  0  0  0  0  0  0
    5.2223    2.9031   -1.5645 C   0  0  0  0  0  0  0  0  0  0  0  0
    4.2597    3.3503   -0.7330 C   0  0  0  0  0  0  0  0  0  0  0  0
    3.1382    2.6866   -0.1660 C   0  0  0  0  0  0  0  0  0  0  0  0
    2.7913    1.0018   -0.3516 S   0  0  0  0  0  0  0  0  0  0  0  0
    1.4796    1.0316    0.7920 C   0  0  0  0  0  0  0  0  0  0  0  0
    1.3043    2.3378    1.2873 C   0  0  0  0  0  0  0  0  0  0  0  0
    2.2382    3.2659    0.7416 C   0  0  0  0  0  0  0  0  0  0  0  0
    2.1848    4.6134    1.1502 C   0  0  0  0  0  0  0  0  0  0  0  0
    1.2593    5.0429    2.0555 C   0  0  0  0  0  0  0  0  0  0  0  0
    1.1847    6.4777    2.4671 C   0  0  0  0  0  0  0  0  0  0  0  0
    0.3097    4.1130    2.5769 C   0  0  0  0  0  0  0  0  0  0  0  0
   -0.5862    4.6358    3.4565 O   0  0  0  0  0  0  0  0  0  0  0  0
   -1.5614    3.7850    4.0131 C   0  0  0  0  0  0  0  0  0  0  0  0
    0.3320    2.7951    2.1948 C   0  0  0  0  0  0  0  0  0  0  0  0
    0.8043   -0.1548    1.1494 C   0  0  0  0  0  0  0  0  0  0  0  0
   -0.0553   -0.2611    2.6594 S   0  0  0  0  0  0  0  0  0  0  0  0
   -0.5794   -1.8894    2.3696 C   0  0  0  0  0  0  0  0  0  0  0  0
   -0.0443   -2.3599    1.1662 C   0  0  0  0  0  0  0  0  0  0  0  0
    0.7209   -1.3827    0.4650 C   0  0  0  0  0  0  0  0  0  0  0  0
    1.2142   -1.7166   -0.8132 C   0  0  0  0  0  0  0  0  0  0  0  0
    0.9615   -2.9383   -1.3699 C   0  0  0  0  0  0  0  0  0  0  0  0
    1.4134   -3.2805   -2.7527 C   0  0  0  0  0  0  0  0  0  0  0  0
    0.2634   -3.9342   -0.6198 C   0  0  0  0  0  0  0  0  0  0  0  0
    0.1176   -5.1266   -1.2512 O   0  0  0  0  0  0  0  0  0  0  0  0
   -0.5938   -6.1510   -0.5980 C   0  0  0  0  0  0  0  0  0  0  0  0
   -0.2122   -3.6531    0.6335 C   0  0  0  0  0  0  0  0  0  0  0  0
   -1.4668   -2.5351    3.2749 C   0  0  0  0  0  0  0  0  0  0  0  0
   -1.2180   -2.3564    4.9896 S   0  0  0  0  0  0  0  0  0  0  0  0
   -2.5206   -3.4485    5.3307 C   0  0  0  0  0  0  0  0  0  0  0  0
   -2.8805   -3.7881    6.6989 C   0  0  0  0  0  0  0  0  0  0  0  0
   -3.7601   -4.5557    7.0095 O   0  0  0  0  0  0  0  0  0  0  0  0
   -2.1022   -3.1421    7.5874 O   0  0  0  0  0  0  0  0  0  0  0  0
   -2.3696   -3.4112    8.9533 C   0  0  0  0  0  0  0  0  0  0  0  0
   -3.1120   -3.9051    4.1858 C   0  0  0  0  0  0  0  0  0  0  0  0
   -2.5567   -3.3731    3.0012 C   0  0  0  0  0  0  0  0  0  0  0  0
   -3.1511   -3.6077    1.7136 C   0  0  0  0  0  0  0  0  0  0  0  0
   -2.9674   -2.8059    0.6429 C   0  0  0  0  0  0  0  0  0  0  0  0
   -3.4156   -3.0375   -0.6814 C   0  0  0  0  0  0  0  0  0  0  0  0
   -4.1462   -4.5451   -1.1443 S   0  0  0  0  0  0  0  0  0  0  0  0
   -4.1310   -4.0823   -2.8137 C   0  0  0  0  0  0  0  0  0  0  0  0
   -4.6628   -5.0110   -3.8013 C   0  0  0  0  0  0  0  0  0  0  0  0
   -5.1122   -6.1030   -3.5464 O   0  0  0  0  0  0  0  0  0  0  0  0
   -4.5938   -4.5064   -5.0481 O   0  0  0  0  0  0  0  0  0  0  0  0
   -5.0950   -5.3495   -6.0737 C   0  0  0  0  0  0  0  0  0  0  0  0
   -3.5848   -2.8411   -2.9923 C   0  0  0  0  0  0  0  0  0  0  0  0
   -3.1847   -2.2159   -1.7916 C   0  0  0  0  0  0  0  0  0  0  0  0
   -2.5797   -0.9092   -1.7932 C   0  0  0  0  0  0  0  0  0  0  0  0
   -2.6178   -0.0098   -0.7881 C   0  0  0  0  0  0  0  0  0  0  0  0
   -1.9896    1.2733   -0.7749 C   0  0  0  0  0  0  0  0  0  0  0  0
   -2.6366    2.4638    0.3175 S   0  0  0  0  0  0  0  0  0  0  0  0
   -1.5266    3.6569   -0.2589 C   0  0  0  0  0  0  0  0  0  0  0  0
   -1.5664    5.0183    0.2513 C   0  0  0  0  0  0  0  0  0  0  0  0
   -0.8348    5.9120   -0.1055 O   0  0  0  0  0  0  0  0  0  0  0  0
   -2.5504    5.1649    1.1556 O   0  0  0  0  0  0  0  0  0  0  0  0
   -2.7015    6.4500    1.7375 C   0  0  0  0  0  0  0  0  0  0  0  0
   -0.6925    3.1471   -1.2175 C   0  0  0  0  0  0  0  0  0  0  0  0
   -0.9352    1.7921   -1.5220 C   0  0  0  0  0  0  0  0  0  0  0  0
   -0.1363    1.0207   -2.4553 C   0  0  0  0  0  0  0  0  0  0  0  0
    0.5635    1.5322   -3.4620 C   0  0  0  0  0  0  0  0  0  0  0  0
    7.4297    1.1899   -1.9923 H   0  0  0  0  0  0  0  0  0  0  0  0
    2.9020   -2.5342   -6.1046 H   0  0  0  0  0  0  0  0  0  0  0  0
    3.7266   -3.8695   -5.2547 H   0  0  0  0  0  0  0  0  0  0  0  0
    4.5029   -3.1087   -6.6708 H   0  0  0  0  0  0  0  0  0  0  0  0
    3.2477    1.4038   -3.0469 H   0  0  0  0  0  0  0  0  0  0  0  0
    6.0682    3.5567   -1.7352 H   0  0  0  0  0  0  0  0  0  0  0  0
    4.3827    4.3607   -0.3646 H   0  0  0  0  0  0  0  0  0  0  0  0
    2.8793    5.3271    0.7354 H   0  0  0  0  0  0  0  0  0  0  0  0
    2.1493    6.9638    2.3453 H   0  0  0  0  0  0  0  0  0  0  0  0
    0.8587    6.5646    3.5005 H   0  0  0  0  0  0  0  0  0  0  0  0
    0.4618    6.9901    1.8322 H   0  0  0  0  0  0  0  0  0  0  0  0
   -2.2341    3.3939    3.2437 H   0  0  0  0  0  0  0  0  0  0  0  0
   -1.1035    2.9542    4.5585 H   0  0  0  0  0  0  0  0  0  0  0  0
   -2.1285    4.4037    4.7071 H   0  0  0  0  0  0  0  0  0  0  0  0
   -0.4063    2.1075    2.5671 H   0  0  0  0  0  0  0  0  0  0  0  0
    1.7842   -0.9962   -1.3778 H   0  0  0  0  0  0  0  0  0  0  0  0
    2.2730   -3.9492   -2.7103 H   0  0  0  0  0  0  0  0  0  0  0  0
    0.6195   -3.8037   -3.2815 H   0  0  0  0  0  0  0  0  0  0  0  0
    1.6834   -2.3841   -3.3024 H   0  0  0  0  0  0  0  0  0  0  0  0
   -1.6196   -5.8448   -0.3713 H   0  0  0  0  0  0  0  0  0  0  0  0
   -0.6124   -6.9871   -1.2949 H   0  0  0  0  0  0  0  0  0  0  0  0
   -0.0935   -6.4594    0.3252 H   0  0  0  0  0  0  0  0  0  0  0  0
   -0.7211   -4.3919    1.2279 H   0  0  0  0  0  0  0  0  0  0  0  0
   -3.3899   -3.1146    9.2059 H   0  0  0  0  0  0  0  0  0  0  0  0
   -2.2539   -4.4774    9.1596 H   0  0  0  0  0  0  0  0  0  0  0  0
   -1.6495   -2.8302    9.5235 H   0  0  0  0  0  0  0  0  0  0  0  0
   -3.9491   -4.5800    4.2037 H   0  0  0  0  0  0  0  0  0  0  0  0
   -3.8084   -4.4647    1.6389 H   0  0  0  0  0  0  0  0  0  0  0  0
   -2.3829   -1.9096    0.7673 H   0  0  0  0  0  0  0  0  0  0  0  0
   -6.1536   -5.5611   -5.9081 H   0  0  0  0  0  0  0  0  0  0  0  0
   -4.5480   -6.2947   -6.0901 H   0  0  0  0  0  0  0  0  0  0  0  0
   -4.9542   -4.8088   -7.0060 H   0  0  0  0  0  0  0  0  0  0  0  0
   -3.4892   -2.3866   -3.9620 H   0  0  0  0  0  0  0  0  0  0  0  0
   -2.1100   -0.6362   -2.7278 H   0  0  0  0  0  0  0  0  0  0  0  0
   -3.2417   -0.2042    0.0742 H   0  0  0  0  0  0  0  0  0  0  0  0
   -2.4460    7.2230    1.0096 H   0  0  0  0  0  0  0  0  0  0  0  0
   -2.0458    6.5365    2.6059 H   0  0  0  0  0  0  0  0  0  0  0  0
   -3.7432    6.5351    2.0392 H   0  0  0  0  0  0  0  0  0  0  0  0
    0.0810    3.7409   -1.6695 H   0  0  0  0  0  0  0  0  0  0  0  0
   -0.1229   -0.0459   -2.2812 H   0  0  0  0  0  0  0  0  0  0  0  0
    0.5596    2.5863   -3.6867 H   0  0  0  0  0  0  0  0  0  0  0  0
    1.1445    0.8974   -4.1087 H   0  0  0  0  0  0  0  0  0  0  0  0
  1  2  1  0  0  0  0
  2  3  1  0  0  0  0
  3  4  1  0  0  0  0
  4  5  2  0  0  0  0
  4  6  1  0  0  0  0
  6  7  1  0  0  0  0
  3  8  2  0  0  0  0
  8  9  1  0  0  0  0
  9 10  1  0  0  0  0
 10 11  2  0  0  0  0
 11 12  1  0  0  0  0
 12 13  1  0  0  0  0
 13 14  1  0  0  0  0
 14 15  2  0  0  0  0
 15 16  1  0  0  0  0
 16 17  1  0  0  0  0
 17 18  2  0  0  0  0
 18 19  1  0  0  0  0
 18 20  1  0  0  0  0
 20 21  1  0  0  0  0
 21 22  1  0  0  0  0
 20 23  2  0  0  0  0
 14 24  1  0  0  0  0
 24 25  1  0  0  0  0
 25 26  1  0  0  0  0
 26 27  2  0  0  0  0
 27 28  1  0  0  0  0
 28 29  1  0  0  0  0
 29 30  2  0  0  0  0
 30 31  1  0  0  0  0
 30 32  1  0  0  0  0
 32 33  1  0  0  0  0
 33 34  1  0  0  0  0
 32 35  2  0  0  0  0
 26 36  1  0  0  0  0
 36 37  1  0  0  0  0
 37 38  1  0  0  0  0
 38 39  1  0  0  0  0
 39 40  2  0  0  0  0
 39 41  1  0  0  0  0
 41 42  1  0  0  0  0
 38 43  2  0  0  0  0
 43 44  1  0  0  0  0
 44 45  1  0  0  0  0
 45 46  2  0  0  0  0
 46 47  1  0  0  0  0
 47 48  1  0  0  0  0
 48 49  1  0  0  0  0
 49 50  1  0  0  0  0
 50 51  2  0  0  0  0
 50 52  1  0  0  0  0
 52 53  1  0  0  0  0
 49 54  2  0  0  0  0
 54 55  1  0  0  0  0
 55 56  1  0  0  0  0
 56 57  2  0  0  0  0
 57 58  1  0  0  0  0
 58 59  1  0  0  0  0
 59 60  1  0  0  0  0
 60 61  1  0  0  0  0
 61 62  2  0  0  0  0
 61 63  1  0  0  0  0
 63 64  1  0  0  0  0
 60 65  2  0  0  0  0
 65 66  1  0  0  0  0
 66 67  1  0  0  0  0
 67 68  2  0  0  0  0
  9  1  2  0  0  0  0
 16 12  2  0  0  0  0
 28 24  2  0  0  0  0
 44 36  2  0  0  0  0
 55 47  2  0  0  0  0
 66 58  2  0  0  0  0
 23 15  1  0  0  0  0
 35 27  1  0  0  0  0
  1 69  1  0  0  0  0
  7 70  1  0  0  0  0
  7 71  1  0  0  0  0
  7 72  1  0  0  0  0
  8 73  1  0  0  0  0
 10 74  1  0  0  0  0
 11 75  1  0  0  0  0
 17 76  1  0  0  0  0
 19 77  1  0  0  0  0
 19 78  1  0  0  0  0
 19 79  1  0  0  0  0
 22 80  1  0  0  0  0
 22 81  1  0  0  0  0
 22 82  1  0  0  0  0
 23 83  1  0  0  0  0
 29 84  1  0  0  0  0
 31 85  1  0  0  0  0
 31 86  1  0  0  0  0
 31 87  1  0  0  0  0
 34 88  1  0  0  0  0
 34 89  1  0  0  0  0
 34 90  1  0  0  0  0
 35 91  1  0  0  0  0
 42 92  1  0  0  0  0
 42 93  1  0  0  0  0
 42 94  1  0  0  0  0
 43 95  1  0  0  0  0
 45 96  1  0  0  0  0
 46 97  1  0  0  0  0
 53 98  1  0  0  0  0
 53 99  1  0  0  0  0
 53100  1  0  0  0  0
 54101  1  0  0  0  0
 56102  1  0  0  0  0
 57103  1  0  0  0  0
 64104  1  0  0  0  0
 64105  1  0  0  0  0
 64106  1  0  0  0  0
 65107  1  0  0  0  0
 67108  1  0  0  0  0
 68109  1  0  0  0  0
 68110  1  0  0  0  0
M  END
