
  xtb     03042201153D
 energy: -416.043571318201 gnorm: 0.000196163858 xtb: 6.4.1 (unknown)
242265  0     0  0            999 V2000
  -12.9516    2.2775   13.4266 C   0  0  0  0  0  0  0  0  0  0  0  0
  -12.7564    2.6188   11.7699 S   0  0  0  0  0  0  0  0  0  0  0  0
  -11.6169    1.3262   11.5586 C   0  0  0  0  0  0  0  0  0  0  0  0
  -11.3880    0.6703   12.7691 C   0  0  0  0  0  0  0  0  0  0  0  0
  -12.1679    1.2226   13.8379 C   0  0  0  0  0  0  0  0  0  0  0  0
  -12.0573    0.6752   15.1396 C   0  0  0  0  0  0  0  0  0  0  0  0
  -11.2070   -0.3566   15.3862 C   0  0  0  0  0  0  0  0  0  0  0  0
  -11.0566   -0.9627   16.7442 C   0  0  0  0  0  0  0  0  0  0  0  0
  -10.4033   -0.8832   14.3195 C   0  0  0  0  0  0  0  0  0  0  0  0
   -9.5755   -1.8958   14.6937 O   0  0  0  0  0  0  0  0  0  0  0  0
   -8.7654   -2.5015   13.7174 C   0  0  0  0  0  0  0  0  0  0  0  0
  -10.4877   -0.3803   13.0496 C   0  0  0  0  0  0  0  0  0  0  0  0
  -11.0521    1.0778   10.2752 C   0  0  0  0  0  0  0  0  0  0  0  0
  -10.5193   -0.0804    9.7861 C   0  0  0  0  0  0  0  0  0  0  0  0
   -9.9898    0.0387    8.4780 C   0  0  0  0  0  0  0  0  0  0  0  0
   -9.3276   -0.9449    7.7272 C   0  0  0  0  0  0  0  0  0  0  0  0
   -9.0368   -2.2694    8.2894 C   0  0  0  0  0  0  0  0  0  0  0  0
   -8.3984   -2.3917    9.5233 C   0  0  0  0  0  0  0  0  0  0  0  0
   -8.0916   -3.6332   10.0357 C   0  0  0  0  0  0  0  0  0  0  0  0
   -8.4248   -4.8020    9.3526 C   0  0  0  0  0  0  0  0  0  0  0  0
   -8.0248   -6.3332   10.1424 S   0  0  0  0  0  0  0  0  0  0  0  0
   -7.5116   -7.4345    8.7732 C   0  0  0  0  0  0  0  0  0  0  0  0
   -6.3593   -6.8570    7.9766 C   0  0  0  0  0  0  0  0  0  0  0  0
   -9.0858   -4.6652    8.1360 C   0  0  0  0  0  0  0  0  0  0  0  0
   -9.4802   -5.7513    7.4364 F   0  0  0  0  0  0  0  0  0  0  0  0
   -9.3714   -3.4269    7.5965 C   0  0  0  0  0  0  0  0  0  0  0  0
   -8.9107   -0.5835    6.4560 C   0  0  0  0  0  0  0  0  0  0  0  0
   -9.0903    0.7163    5.9210 C   0  0  0  0  0  0  0  0  0  0  0  0
   -9.7405    1.7055    6.6798 C   0  0  0  0  0  0  0  0  0  0  0  0
   -9.9007    3.0758    6.1773 C   0  0  0  0  0  0  0  0  0  0  0  0
   -8.8072    3.7936    5.6946 C   0  0  0  0  0  0  0  0  0  0  0  0
   -8.9648    5.0782    5.2209 C   0  0  0  0  0  0  0  0  0  0  0  0
  -10.2113    5.7014    5.2149 C   0  0  0  0  0  0  0  0  0  0  0  0
  -10.2808    7.3661    4.6204 S   0  0  0  0  0  0  0  0  0  0  0  0
  -11.8330    7.4251    3.6507 C   0  0  0  0  0  0  0  0  0  0  0  0
  -11.8440    6.3972    2.5373 C   0  0  0  0  0  0  0  0  0  0  0  0
  -11.2869    4.9853    5.7314 C   0  0  0  0  0  0  0  0  0  0  0  0
  -11.1466    3.6929    6.1953 C   0  0  0  0  0  0  0  0  0  0  0  0
  -12.5189    5.5355    5.7924 F   0  0  0  0  0  0  0  0  0  0  0  0
  -10.1869    1.3340    7.9379 C   0  0  0  0  0  0  0  0  0  0  0  0
  -10.9728    2.3782    9.0927 S   0  0  0  0  0  0  0  0  0  0  0  0
   -8.5279    0.8355    4.6252 C   0  0  0  0  0  0  0  0  0  0  0  0
   -7.9081   -0.3002    4.1914 C   0  0  0  0  0  0  0  0  0  0  0  0
   -8.0290   -1.6057    5.3540 S   0  0  0  0  0  0  0  0  0  0  0  0
   -7.1494   -0.4825    2.9954 C   0  0  0  0  0  0  0  0  0  0  0  0
   -6.7632    0.4718    2.0992 C   0  0  0  0  0  0  0  0  0  0  0  0
   -5.9016   -0.0196    1.0875 C   0  0  0  0  0  0  0  0  0  0  0  0
   -5.2369    0.7117    0.0917 C   0  0  0  0  0  0  0  0  0  0  0  0
   -5.4662    2.1438   -0.1378 C   0  0  0  0  0  0  0  0  0  0  0  0
   -6.7465    2.6477   -0.3597 C   0  0  0  0  0  0  0  0  0  0  0  0
   -6.9278    3.9704   -0.7039 C   0  0  0  0  0  0  0  0  0  0  0  0
   -5.8500    4.8477   -0.8195 C   0  0  0  0  0  0  0  0  0  0  0  0
   -6.1997    6.5095   -1.3060 S   0  0  0  0  0  0  0  0  0  0  0  0
   -4.7839    6.9758   -2.3738 C   0  0  0  0  0  0  0  0  0  0  0  0
   -4.5627    6.0003   -3.5110 C   0  0  0  0  0  0  0  0  0  0  0  0
   -4.5873    4.3470   -0.5172 C   0  0  0  0  0  0  0  0  0  0  0  0
   -3.4993    5.1508   -0.5269 F   0  0  0  0  0  0  0  0  0  0  0  0
   -4.3872    3.0196   -0.2018 C   0  0  0  0  0  0  0  0  0  0  0  0
   -4.3248    0.0142   -0.6840 C   0  0  0  0  0  0  0  0  0  0  0  0
   -4.0636   -1.3713   -0.5418 C   0  0  0  0  0  0  0  0  0  0  0  0
   -4.7465   -2.1071    0.4407 C   0  0  0  0  0  0  0  0  0  0  0  0
   -4.4923   -3.5356    0.6600 C   0  0  0  0  0  0  0  0  0  0  0  0
   -3.1962   -4.0239    0.8226 C   0  0  0  0  0  0  0  0  0  0  0  0
   -2.9763   -5.3617    1.0655 C   0  0  0  0  0  0  0  0  0  0  0  0
   -4.0317   -6.2712    1.1438 C   0  0  0  0  0  0  0  0  0  0  0  0
   -3.6099   -7.9602    1.4263 S   0  0  0  0  0  0  0  0  0  0  0  0
   -5.0608   -8.6468    2.3215 C   0  0  0  0  0  0  0  0  0  0  0  0
   -4.6197   -9.8765    3.0908 C   0  0  0  0  0  0  0  0  0  0  0  0
   -5.3174   -5.7735    0.9525 C   0  0  0  0  0  0  0  0  0  0  0  0
   -5.5530   -4.4316    0.7329 C   0  0  0  0  0  0  0  0  0  0  0  0
   -6.3910   -6.5953    0.9618 F   0  0  0  0  0  0  0  0  0  0  0  0
   -5.6451   -1.4063    1.2323 C   0  0  0  0  0  0  0  0  0  0  0  0
   -6.5030   -2.0621    2.6009 S   0  0  0  0  0  0  0  0  0  0  0  0
   -3.0765   -1.8194   -1.4588 C   0  0  0  0  0  0  0  0  0  0  0  0
   -2.5780   -0.8262   -2.2475 C   0  0  0  0  0  0  0  0  0  0  0  0
   -3.3546    0.7179   -1.9465 S   0  0  0  0  0  0  0  0  0  0  0  0
   -1.4660   -0.8449   -3.1387 C   0  0  0  0  0  0  0  0  0  0  0  0
   -0.9177    0.2524   -3.7328 C   0  0  0  0  0  0  0  0  0  0  0  0
    0.2996   -0.0065   -4.4057 C   0  0  0  0  0  0  0  0  0  0  0  0
    1.1686    0.9423   -4.9747 C   0  0  0  0  0  0  0  0  0  0  0  0
    0.7538    2.3490   -5.0336 C   0  0  0  0  0  0  0  0  0  0  0  0
    1.5473    3.3673   -4.5144 C   0  0  0  0  0  0  0  0  0  0  0  0
    1.0867    4.6687   -4.4602 C   0  0  0  0  0  0  0  0  0  0  0  0
   -0.1836    4.9961   -4.9203 C   0  0  0  0  0  0  0  0  0  0  0  0
   -0.8949    6.6078   -4.8313 S   0  0  0  0  0  0  0  0  0  0  0  0
   -0.0984    7.3299   -3.3530 C   0  0  0  0  0  0  0  0  0  0  0  0
   -0.3942    6.5396   -2.0936 C   0  0  0  0  0  0  0  0  0  0  0  0
   -0.9416    3.9787   -5.4998 C   0  0  0  0  0  0  0  0  0  0  0  0
   -2.1614    4.2666   -5.9960 F   0  0  0  0  0  0  0  0  0  0  0  0
   -0.4962    2.6777   -5.5578 C   0  0  0  0  0  0  0  0  0  0  0  0
    2.4063    0.4762   -5.3868 C   0  0  0  0  0  0  0  0  0  0  0  0
    2.7631   -0.8939   -5.3133 C   0  0  0  0  0  0  0  0  0  0  0  0
    1.8835   -1.8465   -4.7692 C   0  0  0  0  0  0  0  0  0  0  0  0
    2.3009   -3.2489   -4.6539 C   0  0  0  0  0  0  0  0  0  0  0  0
    1.5163   -4.2899   -5.1447 C   0  0  0  0  0  0  0  0  0  0  0  0
    1.9849   -5.5868   -5.1296 C   0  0  0  0  0  0  0  0  0  0  0  0
    3.2400   -5.9034   -4.6113 C   0  0  0  0  0  0  0  0  0  0  0  0
    3.7513   -7.5942   -4.6766 S   0  0  0  0  0  0  0  0  0  0  0  0
    5.5370   -7.5070   -5.0781 C   0  0  0  0  0  0  0  0  0  0  0  0
    5.8143   -6.7381   -6.3530 C   0  0  0  0  0  0  0  0  0  0  0  0
    3.9741   -4.8639   -4.0488 C   0  0  0  0  0  0  0  0  0  0  0  0
    3.5291   -3.5596   -4.0763 C   0  0  0  0  0  0  0  0  0  0  0  0
    5.1694   -5.0934   -3.4538 F   0  0  0  0  0  0  0  0  0  0  0  0
    0.6651   -1.3725   -4.3153 C   0  0  0  0  0  0  0  0  0  0  0  0
   -0.5312   -2.2979   -3.4390 S   0  0  0  0  0  0  0  0  0  0  0  0
    4.0729   -1.1214   -5.7926 C   0  0  0  0  0  0  0  0  0  0  0  0
    4.7353    0.0149   -6.1567 C   0  0  0  0  0  0  0  0  0  0  0  0
    3.7218    1.4364   -6.0196 S   0  0  0  0  0  0  0  0  0  0  0  0
    6.1252    0.0745   -6.4790 C   0  0  0  0  0  0  0  0  0  0  0  0
    7.0103   -0.9460   -6.2794 C   0  0  0  0  0  0  0  0  0  0  0  0
    8.3503   -0.6032   -6.5649 C   0  0  0  0  0  0  0  0  0  0  0  0
    9.4801   -1.4291   -6.4475 C   0  0  0  0  0  0  0  0  0  0  0  0
    9.3672   -2.7905   -5.9064 C   0  0  0  0  0  0  0  0  0  0  0  0
    8.7650   -3.0094   -4.6696 C   0  0  0  0  0  0  0  0  0  0  0  0
    8.6565   -4.2807   -4.1410 C   0  0  0  0  0  0  0  0  0  0  0  0
    9.1501   -5.3802   -4.8333 C   0  0  0  0  0  0  0  0  0  0  0  0
    9.0756   -7.0442   -4.2486 S   0  0  0  0  0  0  0  0  0  0  0  0
    9.0751   -6.8570   -2.4258 C   0  0  0  0  0  0  0  0  0  0  0  0
    7.6901   -6.9272   -1.8110 C   0  0  0  0  0  0  0  0  0  0  0  0
    9.7350   -5.1492   -6.0786 C   0  0  0  0  0  0  0  0  0  0  0  0
   10.2019   -6.1959   -6.7891 F   0  0  0  0  0  0  0  0  0  0  0  0
    9.8580   -3.8850   -6.6126 C   0  0  0  0  0  0  0  0  0  0  0  0
   10.6880   -0.8751   -6.8283 C   0  0  0  0  0  0  0  0  0  0  0  0
   10.8205    0.4577   -7.2941 C   0  0  0  0  0  0  0  0  0  0  0  0
    9.6865    1.2834   -7.4077 C   0  0  0  0  0  0  0  0  0  0  0  0
    9.7898    2.6565   -7.9143 C   0  0  0  0  0  0  0  0  0  0  0  0
   10.4627    2.9306   -9.1046 C   0  0  0  0  0  0  0  0  0  0  0  0
   10.5590    4.2218   -9.5753 C   0  0  0  0  0  0  0  0  0  0  0  0
    9.9856    5.2908   -8.8884 C   0  0  0  0  0  0  0  0  0  0  0  0
   10.1446    6.8935   -9.6193 S   0  0  0  0  0  0  0  0  0  0  0  0
   10.3882    8.0201   -8.1965 C   0  0  0  0  0  0  0  0  0  0  0  0
   11.5914    7.6304   -7.3618 C   0  0  0  0  0  0  0  0  0  0  0  0
    9.2894    4.9983   -7.7200 C   0  0  0  0  0  0  0  0  0  0  0  0
    9.1988    3.7119   -7.2282 C   0  0  0  0  0  0  0  0  0  0  0  0
    8.6750    5.9738   -7.0142 F   0  0  0  0  0  0  0  0  0  0  0  0
    8.4731    0.7305   -7.0248 C   0  0  0  0  0  0  0  0  0  0  0  0
    6.9154    1.5230   -7.0636 S   0  0  0  0  0  0  0  0  0  0  0  0
   12.1748    0.7949   -7.5258 C   0  0  0  0  0  0  0  0  0  0  0  0
   13.0606   -0.2178   -7.2715 C   0  0  0  0  0  0  0  0  0  0  0  0
   12.2361   -1.6688   -6.7269 S   0  0  0  0  0  0  0  0  0  0  0  0
   14.4741   -0.1478   -7.4057 C   0  0  0  0  0  0  0  0  0  0  0  0
   15.1795    1.3451   -7.9541 S   0  0  0  0  0  0  0  0  0  0  0  0
   16.7646    0.7250   -7.8521 C   0  0  0  0  0  0  0  0  0  0  0  0
   16.7852   -0.5804   -7.4169 C   0  0  0  0  0  0  0  0  0  0  0  0
   15.4707   -1.0932   -7.1588 C   0  0  0  0  0  0  0  0  0  0  0  0
   15.3486   -2.4264   -6.7088 C   0  0  0  0  0  0  0  0  0  0  0  0
   16.4501   -3.2060   -6.5213 C   0  0  0  0  0  0  0  0  0  0  0  0
   16.3418   -4.6187   -6.0469 C   0  0  0  0  0  0  0  0  0  0  0  0
   17.7604   -2.6797   -6.7789 C   0  0  0  0  0  0  0  0  0  0  0  0
   18.7709   -3.5616   -6.5481 O   0  0  0  0  0  0  0  0  0  0  0  0
   20.0920   -3.1397   -6.7748 C   0  0  0  0  0  0  0  0  0  0  0  0
   17.9242   -1.3971   -7.2173 C   0  0  0  0  0  0  0  0  0  0  0  0
  -13.6286    2.8626   14.0161 H   0  0  0  0  0  0  0  0  0  0  0  0
  -12.6564    1.0957   15.9333 H   0  0  0  0  0  0  0  0  0  0  0  0
  -10.0265   -0.8660   17.0836 H   0  0  0  0  0  0  0  0  0  0  0  0
  -11.2854   -2.0264   16.7053 H   0  0  0  0  0  0  0  0  0  0  0  0
  -11.7166   -0.4790   17.4589 H   0  0  0  0  0  0  0  0  0  0  0  0
   -8.2220   -3.2915   14.2335 H   0  0  0  0  0  0  0  0  0  0  0  0
   -8.0509   -1.7898   13.2904 H   0  0  0  0  0  0  0  0  0  0  0  0
   -9.3647   -2.9412   12.9132 H   0  0  0  0  0  0  0  0  0  0  0  0
   -9.8594   -0.7550   12.2611 H   0  0  0  0  0  0  0  0  0  0  0  0
  -10.5502   -1.0152   10.3129 H   0  0  0  0  0  0  0  0  0  0  0  0
   -8.1087   -1.5016   10.0613 H   0  0  0  0  0  0  0  0  0  0  0  0
   -7.5787   -3.7248   10.9810 H   0  0  0  0  0  0  0  0  0  0  0  0
   -7.2142   -8.3471    9.2903 H   0  0  0  0  0  0  0  0  0  0  0  0
   -8.3750   -7.6474    8.1469 H   0  0  0  0  0  0  0  0  0  0  0  0
   -5.5216   -6.6227    8.6304 H   0  0  0  0  0  0  0  0  0  0  0  0
   -6.6596   -5.9474    7.4597 H   0  0  0  0  0  0  0  0  0  0  0  0
   -6.0315   -7.5808    7.2332 H   0  0  0  0  0  0  0  0  0  0  0  0
   -9.8838   -3.3810    6.6483 H   0  0  0  0  0  0  0  0  0  0  0  0
   -7.8261    3.3437    5.7073 H   0  0  0  0  0  0  0  0  0  0  0  0
   -8.1175    5.6303    4.8445 H   0  0  0  0  0  0  0  0  0  0  0  0
  -12.6783    7.3071    4.3250 H   0  0  0  0  0  0  0  0  0  0  0  0
  -11.8367    8.4387    3.2499 H   0  0  0  0  0  0  0  0  0  0  0  0
  -11.8400    5.3867    2.9421 H   0  0  0  0  0  0  0  0  0  0  0  0
  -10.9717    6.5177    1.8981 H   0  0  0  0  0  0  0  0  0  0  0  0
  -12.7408    6.5213    1.9335 H   0  0  0  0  0  0  0  0  0  0  0  0
  -12.0192    3.1783    6.5663 H   0  0  0  0  0  0  0  0  0  0  0  0
   -8.5859    1.7338    4.0386 H   0  0  0  0  0  0  0  0  0  0  0  0
   -7.0410    1.5069    2.1790 H   0  0  0  0  0  0  0  0  0  0  0  0
   -7.5968    1.9848   -0.3071 H   0  0  0  0  0  0  0  0  0  0  0  0
   -7.9165    4.3498   -0.9107 H   0  0  0  0  0  0  0  0  0  0  0  0
   -5.0768    7.9562   -2.7498 H   0  0  0  0  0  0  0  0  0  0  0  0
   -3.9003    7.0889   -1.7489 H   0  0  0  0  0  0  0  0  0  0  0  0
   -4.2750    5.0187   -3.1393 H   0  0  0  0  0  0  0  0  0  0  0  0
   -5.4685    5.8908   -4.1032 H   0  0  0  0  0  0  0  0  0  0  0  0
   -3.7671    6.3646   -4.1578 H   0  0  0  0  0  0  0  0  0  0  0  0
   -3.3842    2.6859    0.0137 H   0  0  0  0  0  0  0  0  0  0  0  0
   -2.3602   -3.3420    0.7942 H   0  0  0  0  0  0  0  0  0  0  0  0
   -1.9731   -5.7334    1.2049 H   0  0  0  0  0  0  0  0  0  0  0  0
   -5.8307   -8.8948    1.5926 H   0  0  0  0  0  0  0  0  0  0  0  0
   -5.4232   -7.8700    2.9931 H   0  0  0  0  0  0  0  0  0  0  0  0
   -3.8426   -9.6214    3.8079 H   0  0  0  0  0  0  0  0  0  0  0  0
   -5.4680  -10.2974    3.6264 H   0  0  0  0  0  0  0  0  0  0  0  0
   -4.2275  -10.6303    2.4119 H   0  0  0  0  0  0  0  0  0  0  0  0
   -6.5708   -4.1041    0.5885 H   0  0  0  0  0  0  0  0  0  0  0  0
   -2.7354   -2.8371   -1.5235 H   0  0  0  0  0  0  0  0  0  0  0  0
   -1.3459    1.2337   -3.6334 H   0  0  0  0  0  0  0  0  0  0  0  0
    2.5245    3.1361   -4.1195 H   0  0  0  0  0  0  0  0  0  0  0  0
    1.7241    5.4333   -4.0456 H   0  0  0  0  0  0  0  0  0  0  0  0
   -0.5312    8.3288   -3.2989 H   0  0  0  0  0  0  0  0  0  0  0  0
    0.9706    7.4249   -3.5404 H   0  0  0  0  0  0  0  0  0  0  0  0
   -1.4667    6.4446   -1.9441 H   0  0  0  0  0  0  0  0  0  0  0  0
    0.0327    7.0481   -1.2315 H   0  0  0  0  0  0  0  0  0  0  0  0
    0.0310    5.5397   -2.1510 H   0  0  0  0  0  0  0  0  0  0  0  0
   -1.1246    1.9259   -6.0094 H   0  0  0  0  0  0  0  0  0  0  0  0
    0.5511   -4.0735   -5.5760 H   0  0  0  0  0  0  0  0  0  0  0  0
    1.3883   -6.3866   -5.5397 H   0  0  0  0  0  0  0  0  0  0  0  0
    5.8172   -8.5544   -5.1868 H   0  0  0  0  0  0  0  0  0  0  0  0
    6.0711   -7.0868   -4.2308 H   0  0  0  0  0  0  0  0  0  0  0  0
    6.8752   -6.8026   -6.5862 H   0  0  0  0  0  0  0  0  0  0  0  0
    5.5504   -5.6874   -6.2424 H   0  0  0  0  0  0  0  0  0  0  0  0
    5.2473   -7.1518   -7.1841 H   0  0  0  0  0  0  0  0  0  0  0  0
    4.1376   -2.7929   -3.6213 H   0  0  0  0  0  0  0  0  0  0  0  0
    4.5088   -2.0994   -5.8658 H   0  0  0  0  0  0  0  0  0  0  0  0
    6.7236   -1.9197   -5.9290 H   0  0  0  0  0  0  0  0  0  0  0  0
    8.3910   -2.1683   -4.1051 H   0  0  0  0  0  0  0  0  0  0  0  0
    8.1764   -4.4135   -3.1851 H   0  0  0  0  0  0  0  0  0  0  0  0
    9.6879   -7.6877   -2.0748 H   0  0  0  0  0  0  0  0  0  0  0  0
    9.5835   -5.9222   -2.1952 H   0  0  0  0  0  0  0  0  0  0  0  0
    7.7672   -6.8414   -0.7284 H   0  0  0  0  0  0  0  0  0  0  0  0
    7.0500   -6.1273   -2.1735 H   0  0  0  0  0  0  0  0  0  0  0  0
    7.2200   -7.8792   -2.0472 H   0  0  0  0  0  0  0  0  0  0  0  0
   10.3236   -3.7634   -7.5778 H   0  0  0  0  0  0  0  0  0  0  0  0
   10.8995    2.1210   -9.6691 H   0  0  0  0  0  0  0  0  0  0  0  0
   11.0833    4.4302  -10.4950 H   0  0  0  0  0  0  0  0  0  0  0  0
   10.5370    8.9897   -8.6718 H   0  0  0  0  0  0  0  0  0  0  0  0
    9.4746    8.0509   -7.6071 H   0  0  0  0  0  0  0  0  0  0  0  0
   11.4407    6.6602   -6.8921 H   0  0  0  0  0  0  0  0  0  0  0  0
   12.4852    7.5796   -7.9801 H   0  0  0  0  0  0  0  0  0  0  0  0
   11.7485    8.3696   -6.5787 H   0  0  0  0  0  0  0  0  0  0  0  0
    8.6664    3.5500   -6.3040 H   0  0  0  0  0  0  0  0  0  0  0  0
   12.4950    1.7699   -7.8473 H   0  0  0  0  0  0  0  0  0  0  0  0
   17.5963    1.3475   -8.1151 H   0  0  0  0  0  0  0  0  0  0  0  0
   14.3719   -2.8377   -6.5111 H   0  0  0  0  0  0  0  0  0  0  0  0
   16.8101   -5.2901   -6.7646 H   0  0  0  0  0  0  0  0  0  0  0  0
   15.3020   -4.9033   -5.9135 H   0  0  0  0  0  0  0  0  0  0  0  0
   16.8714   -4.7367   -5.1026 H   0  0  0  0  0  0  0  0  0  0  0  0
   20.7212   -3.9948   -6.5329 H   0  0  0  0  0  0  0  0  0  0  0  0
   20.2497   -2.8580   -7.8210 H   0  0  0  0  0  0  0  0  0  0  0  0
   20.3608   -2.2975   -6.1287 H   0  0  0  0  0  0  0  0  0  0  0  0
   18.8947   -0.9744   -7.4206 H   0  0  0  0  0  0  0  0  0  0  0  0
  1  2  1  0  0  0  0
  2  3  1  0  0  0  0
  3  4  2  0  0  0  0
  4  5  1  0  0  0  0
  5  6  1  0  0  0  0
  6  7  2  0  0  0  0
  7  8  1  0  0  0  0
  7  9  1  0  0  0  0
  9 10  1  0  0  0  0
 10 11  1  0  0  0  0
  9 12  2  0  0  0  0
  3 13  1  0  0  0  0
 13 14  2  0  0  0  0
 14 15  1  0  0  0  0
 15 16  2  0  0  0  0
 16 17  1  0  0  0  0
 17 18  2  0  0  0  0
 18 19  1  0  0  0  0
 19 20  2  0  0  0  0
 20 21  1  0  0  0  0
 21 22  1  0  0  0  0
 22 23  1  0  0  0  0
 20 24  1  0  0  0  0
 24 25  1  0  0  0  0
 24 26  2  0  0  0  0
 16 27  1  0  0  0  0
 27 28  2  0  0  0  0
 28 29  1  0  0  0  0
 29 30  1  0  0  0  0
 30 31  2  0  0  0  0
 31 32  1  0  0  0  0
 32 33  2  0  0  0  0
 33 34  1  0  0  0  0
 34 35  1  0  0  0  0
 35 36  1  0  0  0  0
 33 37  1  0  0  0  0
 37 38  2  0  0  0  0
 37 39  1  0  0  0  0
 29 40  2  0  0  0  0
 40 41  1  0  0  0  0
 28 42  1  0  0  0  0
 42 43  2  0  0  0  0
 43 44  1  0  0  0  0
 43 45  1  0  0  0  0
 45 46  2  0  0  0  0
 46 47  1  0  0  0  0
 47 48  2  0  0  0  0
 48 49  1  0  0  0  0
 49 50  2  0  0  0  0
 50 51  1  0  0  0  0
 51 52  2  0  0  0  0
 52 53  1  0  0  0  0
 53 54  1  0  0  0  0
 54 55  1  0  0  0  0
 52 56  1  0  0  0  0
 56 57  1  0  0  0  0
 56 58  2  0  0  0  0
 48 59  1  0  0  0  0
 59 60  2  0  0  0  0
 60 61  1  0  0  0  0
 61 62  1  0  0  0  0
 62 63  2  0  0  0  0
 63 64  1  0  0  0  0
 64 65  2  0  0  0  0
 65 66  1  0  0  0  0
 66 67  1  0  0  0  0
 67 68  1  0  0  0  0
 65 69  1  0  0  0  0
 69 70  2  0  0  0  0
 69 71  1  0  0  0  0
 61 72  2  0  0  0  0
 72 73  1  0  0  0  0
 60 74  1  0  0  0  0
 74 75  2  0  0  0  0
 75 76  1  0  0  0  0
 75 77  1  0  0  0  0
 77 78  2  0  0  0  0
 78 79  1  0  0  0  0
 79 80  2  0  0  0  0
 80 81  1  0  0  0  0
 81 82  2  0  0  0  0
 82 83  1  0  0  0  0
 83 84  2  0  0  0  0
 84 85  1  0  0  0  0
 85 86  1  0  0  0  0
 86 87  1  0  0  0  0
 84 88  1  0  0  0  0
 88 89  1  0  0  0  0
 88 90  2  0  0  0  0
 80 91  1  0  0  0  0
 91 92  2  0  0  0  0
 92 93  1  0  0  0  0
 93 94  1  0  0  0  0
 94 95  2  0  0  0  0
 95 96  1  0  0  0  0
 96 97  2  0  0  0  0
 97 98  1  0  0  0  0
 98 99  1  0  0  0  0
 99100  1  0  0  0  0
 97101  1  0  0  0  0
101102  2  0  0  0  0
101103  1  0  0  0  0
 93104  2  0  0  0  0
104105  1  0  0  0  0
 92106  1  0  0  0  0
106107  2  0  0  0  0
107108  1  0  0  0  0
107109  1  0  0  0  0
109110  2  0  0  0  0
110111  1  0  0  0  0
111112  2  0  0  0  0
112113  1  0  0  0  0
113114  2  0  0  0  0
114115  1  0  0  0  0
115116  2  0  0  0  0
116117  1  0  0  0  0
117118  1  0  0  0  0
118119  1  0  0  0  0
116120  1  0  0  0  0
120121  1  0  0  0  0
120122  2  0  0  0  0
112123  1  0  0  0  0
123124  2  0  0  0  0
124125  1  0  0  0  0
125126  1  0  0  0  0
126127  2  0  0  0  0
127128  1  0  0  0  0
128129  2  0  0  0  0
129130  1  0  0  0  0
130131  1  0  0  0  0
131132  1  0  0  0  0
129133  1  0  0  0  0
133134  2  0  0  0  0
133135  1  0  0  0  0
125136  2  0  0  0  0
136137  1  0  0  0  0
124138  1  0  0  0  0
138139  2  0  0  0  0
139140  1  0  0  0  0
139141  1  0  0  0  0
141142  1  0  0  0  0
142143  1  0  0  0  0
143144  2  0  0  0  0
144145  1  0  0  0  0
145146  1  0  0  0  0
146147  2  0  0  0  0
147148  1  0  0  0  0
147149  1  0  0  0  0
149150  1  0  0  0  0
150151  1  0  0  0  0
149152  2  0  0  0  0
  5  1  2  0  0  0  0
 41 13  1  0  0  0  0
 73 45  1  0  0  0  0
105 77  1  0  0  0  0
137109  1  0  0  0  0
145141  2  0  0  0  0
 12  4  1  0  0  0  0
 40 15  1  0  0  0  0
 72 47  1  0  0  0  0
104 79  1  0  0  0  0
136111  1  0  0  0  0
152144  1  0  0  0  0
 26 17  1  0  0  0  0
 44 27  1  0  0  0  0
 58 49  1  0  0  0  0
 76 59  1  0  0  0  0
 90 81  1  0  0  0  0
108 91  1  0  0  0  0
122113  1  0  0  0  0
140123  1  0  0  0  0
 38 30  1  0  0  0  0
 70 62  1  0  0  0  0
102 94  1  0  0  0  0
134126  1  0  0  0  0
  1153  1  0  0  0  0
  6154  1  0  0  0  0
  8155  1  0  0  0  0
  8156  1  0  0  0  0
  8157  1  0  0  0  0
 11158  1  0  0  0  0
 11159  1  0  0  0  0
 11160  1  0  0  0  0
 12161  1  0  0  0  0
 14162  1  0  0  0  0
 18163  1  0  0  0  0
 19164  1  0  0  0  0
 22165  1  0  0  0  0
 22166  1  0  0  0  0
 23167  1  0  0  0  0
 23168  1  0  0  0  0
 23169  1  0  0  0  0
 26170  1  0  0  0  0
 31171  1  0  0  0  0
 32172  1  0  0  0  0
 35173  1  0  0  0  0
 35174  1  0  0  0  0
 36175  1  0  0  0  0
 36176  1  0  0  0  0
 36177  1  0  0  0  0
 38178  1  0  0  0  0
 42179  1  0  0  0  0
 46180  1  0  0  0  0
 50181  1  0  0  0  0
 51182  1  0  0  0  0
 54183  1  0  0  0  0
 54184  1  0  0  0  0
 55185  1  0  0  0  0
 55186  1  0  0  0  0
 55187  1  0  0  0  0
 58188  1  0  0  0  0
 63189  1  0  0  0  0
 64190  1  0  0  0  0
 67191  1  0  0  0  0
 67192  1  0  0  0  0
 68193  1  0  0  0  0
 68194  1  0  0  0  0
 68195  1  0  0  0  0
 70196  1  0  0  0  0
 74197  1  0  0  0  0
 78198  1  0  0  0  0
 82199  1  0  0  0  0
 83200  1  0  0  0  0
 86201  1  0  0  0  0
 86202  1  0  0  0  0
 87203  1  0  0  0  0
 87204  1  0  0  0  0
 87205  1  0  0  0  0
 90206  1  0  0  0  0
 95207  1  0  0  0  0
 96208  1  0  0  0  0
 99209  1  0  0  0  0
 99210  1  0  0  0  0
100211  1  0  0  0  0
100212  1  0  0  0  0
100213  1  0  0  0  0
102214  1  0  0  0  0
106215  1  0  0  0  0
110216  1  0  0  0  0
114217  1  0  0  0  0
115218  1  0  0  0  0
118219  1  0  0  0  0
118220  1  0  0  0  0
119221  1  0  0  0  0
119222  1  0  0  0  0
119223  1  0  0  0  0
122224  1  0  0  0  0
127225  1  0  0  0  0
128226  1  0  0  0  0
131227  1  0  0  0  0
131228  1  0  0  0  0
132229  1  0  0  0  0
132230  1  0  0  0  0
132231  1  0  0  0  0
134232  1  0  0  0  0
138233  1  0  0  0  0
143234  1  0  0  0  0
146235  1  0  0  0  0
148236  1  0  0  0  0
148237  1  0  0  0  0
148238  1  0  0  0  0
151239  1  0  0  0  0
151240  1  0  0  0  0
151241  1  0  0  0  0
152242  1  0  0  0  0
M  END
