
  xtb     03032202023D
 energy: -352.963462782204 gnorm: 0.000181523585 xtb: 6.4.1 (unknown)
188208  0     0  0            999 V2000
    4.6338   -8.8348   14.2873 C   0  0  0  0  0  0  0  0  0  0  0  0
    3.3946   -8.7629   13.1191 S   0  0  0  0  0  0  0  0  0  0  0  0
    4.2371   -7.5597   12.1842 C   0  0  0  0  0  0  0  0  0  0  0  0
    5.4571   -7.2442   12.7867 C   0  0  0  0  0  0  0  0  0  0  0  0
    5.6743   -7.9824   13.9967 C   0  0  0  0  0  0  0  0  0  0  0  0
    6.8665   -7.7806   14.7349 C   0  0  0  0  0  0  0  0  0  0  0  0
    7.8092   -6.9019   14.3010 C   0  0  0  0  0  0  0  0  0  0  0  0
    9.0812   -6.6588   15.0473 C   0  0  0  0  0  0  0  0  0  0  0  0
    7.5935   -6.1777   13.0804 C   0  0  0  0  0  0  0  0  0  0  0  0
    8.6073   -5.3409   12.7371 O   0  0  0  0  0  0  0  0  0  0  0  0
    8.4926   -4.5978   11.5472 C   0  0  0  0  0  0  0  0  0  0  0  0
    6.4488   -6.3434   12.3481 C   0  0  0  0  0  0  0  0  0  0  0  0
    3.6362   -7.0747   10.9931 C   0  0  0  0  0  0  0  0  0  0  0  0
    2.4819   -7.5302   10.4121 C   0  0  0  0  0  0  0  0  0  0  0  0
    2.1316   -6.8627    9.2177 C   0  0  0  0  0  0  0  0  0  0  0  0
    0.9918   -7.0554    8.4118 C   0  0  0  0  0  0  0  0  0  0  0  0
    0.0103   -8.0800    8.7265 C   0  0  0  0  0  0  0  0  0  0  0  0
    0.4806   -9.7418    8.9388 S   0  0  0  0  0  0  0  0  0  0  0  0
   -1.1491  -10.2513    9.2229 C   0  0  0  0  0  0  0  0  0  0  0  0
   -1.4806  -11.6851    9.4475 C   0  0  0  0  0  0  0  0  0  0  0  0
   -1.5740  -12.4402    8.1196 C   0  0  0  0  0  0  0  0  0  0  0  0
   -1.9954   -9.1866    9.1475 C   0  0  0  0  0  0  0  0  0  0  0  0
   -3.6932   -9.2955    9.3750 Cl  0  0  0  0  0  0  0  0  0  0  0  0
   -1.3432   -7.9546    8.8713 C   0  0  0  0  0  0  0  0  0  0  0  0
   -2.1876   -6.4637    8.8209 Cl  0  0  0  0  0  0  0  0  0  0  0  0
    0.8525   -6.2266    7.3080 C   0  0  0  0  0  0  0  0  0  0  0  0
    1.7946   -5.2215    6.9752 C   0  0  0  0  0  0  0  0  0  0  0  0
    2.9356   -5.0248    7.7783 C   0  0  0  0  0  0  0  0  0  0  0  0
    3.9023   -3.9867    7.4661 C   0  0  0  0  0  0  0  0  0  0  0  0
    3.3842   -2.3537    7.1494 S   0  0  0  0  0  0  0  0  0  0  0  0
    5.0046   -1.7929    6.9087 C   0  0  0  0  0  0  0  0  0  0  0  0
    5.2921   -0.3807    6.5297 C   0  0  0  0  0  0  0  0  0  0  0  0
    4.4339    0.6156    7.3032 C   0  0  0  0  0  0  0  0  0  0  0  0
    5.8829   -2.8206    7.0756 C   0  0  0  0  0  0  0  0  0  0  0  0
    5.2655   -4.0623    7.3875 C   0  0  0  0  0  0  0  0  0  0  0  0
    6.1747   -5.5080    7.5340 Cl  0  0  0  0  0  0  0  0  0  0  0  0
    7.5862   -2.6623    6.9205 Cl  0  0  0  0  0  0  0  0  0  0  0  0
    3.0673   -5.8519    8.8834 C   0  0  0  0  0  0  0  0  0  0  0  0
    4.3343   -5.7591   10.0678 S   0  0  0  0  0  0  0  0  0  0  0  0
    1.4429   -4.5412    5.7955 C   0  0  0  0  0  0  0  0  0  0  0  0
    0.2701   -4.9668    5.2233 C   0  0  0  0  0  0  0  0  0  0  0  0
   -0.4350   -6.2895    6.1340 S   0  0  0  0  0  0  0  0  0  0  0  0
   -0.3184   -4.3714    4.0827 C   0  0  0  0  0  0  0  0  0  0  0  0
    0.4644   -2.9633    3.4427 S   0  0  0  0  0  0  0  0  0  0  0  0
   -0.7369   -2.7099    2.2115 C   0  0  0  0  0  0  0  0  0  0  0  0
   -1.7144   -3.7231    2.2938 C   0  0  0  0  0  0  0  0  0  0  0  0
   -1.4781   -4.6523    3.3535 C   0  0  0  0  0  0  0  0  0  0  0  0
   -2.3821   -5.7140    3.5584 C   0  0  0  0  0  0  0  0  0  0  0  0
   -3.4781   -5.8655    2.7605 C   0  0  0  0  0  0  0  0  0  0  0  0
   -4.4503   -6.9833    2.9524 C   0  0  0  0  0  0  0  0  0  0  0  0
   -3.7166   -4.9281    1.7092 C   0  0  0  0  0  0  0  0  0  0  0  0
   -4.8355   -5.1685    0.9788 O   0  0  0  0  0  0  0  0  0  0  0  0
   -5.1386   -4.3123   -0.0963 C   0  0  0  0  0  0  0  0  0  0  0  0
   -2.8570   -3.8809    1.4891 C   0  0  0  0  0  0  0  0  0  0  0  0
   -0.6015   -1.6366    1.3074 C   0  0  0  0  0  0  0  0  0  0  0  0
   -1.5074   -1.5825   -0.1763 S   0  0  0  0  0  0  0  0  0  0  0  0
   -0.7120   -0.1493   -0.7361 C   0  0  0  0  0  0  0  0  0  0  0  0
    0.1976    0.3132    0.2226 C   0  0  0  0  0  0  0  0  0  0  0  0
    0.2625   -0.5223    1.3773 C   0  0  0  0  0  0  0  0  0  0  0  0
    1.1085   -0.1321    2.4345 C   0  0  0  0  0  0  0  0  0  0  0  0
    1.8780    0.9933    2.3556 C   0  0  0  0  0  0  0  0  0  0  0  0
    2.7809    1.4069    3.4731 C   0  0  0  0  0  0  0  0  0  0  0  0
    1.8059    1.8185    1.1944 C   0  0  0  0  0  0  0  0  0  0  0  0
    2.6030    2.9202    1.2223 O   0  0  0  0  0  0  0  0  0  0  0  0
    2.6207    3.7648    0.0980 C   0  0  0  0  0  0  0  0  0  0  0  0
    0.9629    1.4948    0.1642 C   0  0  0  0  0  0  0  0  0  0  0  0
   -1.0137    0.3882   -2.0115 C   0  0  0  0  0  0  0  0  0  0  0  0
   -0.2168    1.1657   -2.8078 C   0  0  0  0  0  0  0  0  0  0  0  0
   -0.8347    1.5809   -4.0056 C   0  0  0  0  0  0  0  0  0  0  0  0
   -0.3151    2.4583   -4.9737 C   0  0  0  0  0  0  0  0  0  0  0  0
    1.0404    2.9681   -4.8599 C   0  0  0  0  0  0  0  0  0  0  0  0
    1.3723    4.6758   -4.8589 S   0  0  0  0  0  0  0  0  0  0  0  0
    3.0691    4.4246   -4.6336 C   0  0  0  0  0  0  0  0  0  0  0  0
    4.0093    5.5689   -4.4783 C   0  0  0  0  0  0  0  0  0  0  0  0
    4.1982    5.9241   -3.0013 C   0  0  0  0  0  0  0  0  0  0  0  0
    3.3465    3.0919   -4.5635 C   0  0  0  0  0  0  0  0  0  0  0  0
    4.9255    2.4556   -4.3388 Cl  0  0  0  0  0  0  0  0  0  0  0  0
    2.2010    2.2630   -4.6966 C   0  0  0  0  0  0  0  0  0  0  0  0
    2.2988    0.5477   -4.7208 Cl  0  0  0  0  0  0  0  0  0  0  0  0
   -1.1716    2.8444   -5.9935 C   0  0  0  0  0  0  0  0  0  0  0  0
   -2.4967    2.3598   -6.1181 C   0  0  0  0  0  0  0  0  0  0  0  0
   -2.9971    1.4356   -5.1783 C   0  0  0  0  0  0  0  0  0  0  0  0
   -4.3474    0.9081   -5.2739 C   0  0  0  0  0  0  0  0  0  0  0  0
   -5.7227    1.9596   -5.4524 S   0  0  0  0  0  0  0  0  0  0  0  0
   -6.8389    0.6381   -5.4393 C   0  0  0  0  0  0  0  0  0  0  0  0
   -8.3079    0.8658   -5.5200 C   0  0  0  0  0  0  0  0  0  0  0  0
   -8.8986    1.1280   -4.1326 C   0  0  0  0  0  0  0  0  0  0  0  0
   -6.1714   -0.5410   -5.2955 C   0  0  0  0  0  0  0  0  0  0  0  0
   -4.7613   -0.3941   -5.2053 C   0  0  0  0  0  0  0  0  0  0  0  0
   -3.7078   -1.7425   -5.1146 Cl  0  0  0  0  0  0  0  0  0  0  0  0
   -6.9409   -2.0739   -5.2380 Cl  0  0  0  0  0  0  0  0  0  0  0  0
   -2.1552    1.0814   -4.1326 C   0  0  0  0  0  0  0  0  0  0  0  0
   -2.5766    0.0921   -2.7624 S   0  0  0  0  0  0  0  0  0  0  0  0
   -3.1515    2.9151   -7.2445 C   0  0  0  0  0  0  0  0  0  0  0  0
   -2.3796    3.7932   -7.9469 C   0  0  0  0  0  0  0  0  0  0  0  0
   -0.7726    3.9585   -7.2671 S   0  0  0  0  0  0  0  0  0  0  0  0
   -2.7433    4.5891   -9.0710 C   0  0  0  0  0  0  0  0  0  0  0  0
   -1.9454    5.4622   -9.7487 C   0  0  0  0  0  0  0  0  0  0  0  0
   -2.6226    6.1766  -10.7662 C   0  0  0  0  0  0  0  0  0  0  0  0
   -2.0969    7.1380  -11.6448 C   0  0  0  0  0  0  0  0  0  0  0  0
   -0.7235    7.5940  -11.5186 C   0  0  0  0  0  0  0  0  0  0  0  0
    0.3641    7.6005  -12.8747 S   0  0  0  0  0  0  0  0  0  0  0  0
    1.6664    8.2328  -11.9274 C   0  0  0  0  0  0  0  0  0  0  0  0
    3.0166    8.4485  -12.5163 C   0  0  0  0  0  0  0  0  0  0  0  0
    3.8424    7.1602  -12.4808 C   0  0  0  0  0  0  0  0  0  0  0  0
    1.2672    8.4183  -10.6373 C   0  0  0  0  0  0  0  0  0  0  0  0
    2.2851    9.0316   -9.3999 Cl  0  0  0  0  0  0  0  0  0  0  0  0
   -0.0875    8.0630  -10.4016 C   0  0  0  0  0  0  0  0  0  0  0  0
   -0.8472    8.2908   -8.8786 Cl  0  0  0  0  0  0  0  0  0  0  0  0
   -2.9542    7.6347  -12.6192 C   0  0  0  0  0  0  0  0  0  0  0  0
   -4.3107    7.2474  -12.7220 C   0  0  0  0  0  0  0  0  0  0  0  0
   -4.8476    6.3188  -11.8153 C   0  0  0  0  0  0  0  0  0  0  0  0
   -6.2441    5.9160  -11.8734 C   0  0  0  0  0  0  0  0  0  0  0  0
   -6.9416    5.2748  -13.3316 S   0  0  0  0  0  0  0  0  0  0  0  0
   -8.4849    5.0377  -12.5849 C   0  0  0  0  0  0  0  0  0  0  0  0
   -9.6479    4.5260  -13.3608 C   0  0  0  0  0  0  0  0  0  0  0  0
  -10.3426    5.6627  -14.1148 C   0  0  0  0  0  0  0  0  0  0  0  0
   -8.4474    5.4456  -11.2855 C   0  0  0  0  0  0  0  0  0  0  0  0
   -7.1786    5.9376  -10.8758 C   0  0  0  0  0  0  0  0  0  0  0  0
   -6.9026    6.5693   -9.3068 Cl  0  0  0  0  0  0  0  0  0  0  0  0
   -9.7923    5.3762  -10.2224 Cl  0  0  0  0  0  0  0  0  0  0  0  0
   -3.9842    5.7964  -10.8606 C   0  0  0  0  0  0  0  0  0  0  0  0
   -4.3848    4.5797   -9.6811 S   0  0  0  0  0  0  0  0  0  0  0  0
   -4.9765    7.9469  -13.7709 C   0  0  0  0  0  0  0  0  0  0  0  0
   -4.1674    8.8055  -14.4237 C   0  0  0  0  0  0  0  0  0  0  0  0
   -2.5489    8.8342  -13.8146 S   0  0  0  0  0  0  0  0  0  0  0  0
    4.5383   -9.4967   15.1247 H   0  0  0  0  0  0  0  0  0  0  0  0
    7.0138   -8.3389   15.6474 H   0  0  0  0  0  0  0  0  0  0  0  0
    9.1170   -7.2533   15.9560 H   0  0  0  0  0  0  0  0  0  0  0  0
    9.9351   -6.9096   14.4198 H   0  0  0  0  0  0  0  0  0  0  0  0
    9.1674   -5.6040   15.3032 H   0  0  0  0  0  0  0  0  0  0  0  0
    8.4073   -5.2496   10.6723 H   0  0  0  0  0  0  0  0  0  0  0  0
    7.6325   -3.9215   11.5769 H   0  0  0  0  0  0  0  0  0  0  0  0
    9.4091   -4.0143   11.4749 H   0  0  0  0  0  0  0  0  0  0  0  0
    6.2967   -5.7996   11.4331 H   0  0  0  0  0  0  0  0  0  0  0  0
    1.9030   -8.3285   10.8402 H   0  0  0  0  0  0  0  0  0  0  0  0
   -0.7100  -12.1422   10.0710 H   0  0  0  0  0  0  0  0  0  0  0  0
   -2.4364  -11.7443    9.9713 H   0  0  0  0  0  0  0  0  0  0  0  0
   -1.8203  -13.4832    8.2992 H   0  0  0  0  0  0  0  0  0  0  0  0
   -0.6251  -12.3907    7.5907 H   0  0  0  0  0  0  0  0  0  0  0  0
   -2.3455  -12.0027    7.4910 H   0  0  0  0  0  0  0  0  0  0  0  0
    6.3516   -0.1878    6.7089 H   0  0  0  0  0  0  0  0  0  0  0  0
    5.1078   -0.2569    5.4576 H   0  0  0  0  0  0  0  0  0  0  0  0
    4.6651    1.6302    6.9903 H   0  0  0  0  0  0  0  0  0  0  0  0
    4.6198    0.5289    8.3708 H   0  0  0  0  0  0  0  0  0  0  0  0
    3.3782    0.4271    7.1215 H   0  0  0  0  0  0  0  0  0  0  0  0
    2.0315   -3.7528    5.3636 H   0  0  0  0  0  0  0  0  0  0  0  0
   -2.1994   -6.4150    4.3576 H   0  0  0  0  0  0  0  0  0  0  0  0
   -4.1582   -7.6093    3.7908 H   0  0  0  0  0  0  0  0  0  0  0  0
   -4.5036   -7.5905    2.0501 H   0  0  0  0  0  0  0  0  0  0  0  0
   -5.4471   -6.5833    3.1312 H   0  0  0  0  0  0  0  0  0  0  0  0
   -6.0472   -4.7125   -0.5434 H   0  0  0  0  0  0  0  0  0  0  0  0
   -4.3388   -4.3055   -0.8432 H   0  0  0  0  0  0  0  0  0  0  0  0
   -5.3228   -3.2884    0.2440 H   0  0  0  0  0  0  0  0  0  0  0  0
   -3.0528   -3.1698    0.7068 H   0  0  0  0  0  0  0  0  0  0  0  0
    1.1432   -0.7122    3.3407 H   0  0  0  0  0  0  0  0  0  0  0  0
    3.8082    1.4685    3.1172 H   0  0  0  0  0  0  0  0  0  0  0  0
    2.5037    2.3971    3.8311 H   0  0  0  0  0  0  0  0  0  0  0  0
    2.7247    0.6989    4.2953 H   0  0  0  0  0  0  0  0  0  0  0  0
    3.3487    4.5424    0.3243 H   0  0  0  0  0  0  0  0  0  0  0  0
    2.9331    3.2272   -0.8035 H   0  0  0  0  0  0  0  0  0  0  0  0
    1.6433    4.2260   -0.0773 H   0  0  0  0  0  0  0  0  0  0  0  0
    0.8447    2.1491   -0.6808 H   0  0  0  0  0  0  0  0  0  0  0  0
    0.7988    1.4071   -2.5644 H   0  0  0  0  0  0  0  0  0  0  0  0
    4.9735    5.2948   -4.9113 H   0  0  0  0  0  0  0  0  0  0  0  0
    3.6165    6.4332   -5.0153 H   0  0  0  0  0  0  0  0  0  0  0  0
    4.6108    5.0762   -2.4605 H   0  0  0  0  0  0  0  0  0  0  0  0
    4.8802    6.7643   -2.9044 H   0  0  0  0  0  0  0  0  0  0  0  0
    3.2450    6.1932   -2.5525 H   0  0  0  0  0  0  0  0  0  0  0  0
   -8.7760   -0.0194   -5.9549 H   0  0  0  0  0  0  0  0  0  0  0  0
   -8.5064    1.7217   -6.1674 H   0  0  0  0  0  0  0  0  0  0  0  0
   -9.9707    1.2880   -4.2079 H   0  0  0  0  0  0  0  0  0  0  0  0
   -8.7174    0.2780   -3.4795 H   0  0  0  0  0  0  0  0  0  0  0  0
   -8.4435    2.0106   -3.6896 H   0  0  0  0  0  0  0  0  0  0  0  0
   -4.1631    2.6872   -7.5276 H   0  0  0  0  0  0  0  0  0  0  0  0
   -0.9006    5.5794   -9.5258 H   0  0  0  0  0  0  0  0  0  0  0  0
    3.5276    9.2257  -11.9450 H   0  0  0  0  0  0  0  0  0  0  0  0
    2.9110    8.7840  -13.5492 H   0  0  0  0  0  0  0  0  0  0  0  0
    4.8246    7.3347  -12.9114 H   0  0  0  0  0  0  0  0  0  0  0  0
    3.9662    6.8201  -11.4558 H   0  0  0  0  0  0  0  0  0  0  0  0
    3.3450    6.3781  -13.0493 H   0  0  0  0  0  0  0  0  0  0  0  0
   -9.3070    3.7729  -14.0732 H   0  0  0  0  0  0  0  0  0  0  0  0
  -10.3527    4.0615  -12.6689 H   0  0  0  0  0  0  0  0  0  0  0  0
  -11.1935    5.2775  -14.6700 H   0  0  0  0  0  0  0  0  0  0  0  0
   -9.6520    6.1293  -14.8133 H   0  0  0  0  0  0  0  0  0  0  0  0
  -10.6949    6.4176  -13.4164 H   0  0  0  0  0  0  0  0  0  0  0  0
   -6.0142    7.8071  -14.0113 H   0  0  0  0  0  0  0  0  0  0  0  0
   -4.4155    9.4478  -15.2459 H   0  0  0  0  0  0  0  0  0  0  0  0
  1  2  1  0  0  0  0
  2  3  1  0  0  0  0
  3  4  2  0  0  0  0
  4  5  1  0  0  0  0
  5  6  1  0  0  0  0
  6  7  2  0  0  0  0
  7  8  1  0  0  0  0
  7  9  1  0  0  0  0
  9 10  1  0  0  0  0
 10 11  1  0  0  0  0
  9 12  2  0  0  0  0
  3 13  1  0  0  0  0
 13 14  2  0  0  0  0
 14 15  1  0  0  0  0
 15 16  2  0  0  0  0
 16 17  1  0  0  0  0
 17 18  1  0  0  0  0
 18 19  1  0  0  0  0
 19 20  1  0  0  0  0
 20 21  1  0  0  0  0
 19 22  2  0  0  0  0
 22 23  1  0  0  0  0
 22 24  1  0  0  0  0
 24 25  1  0  0  0  0
 16 26  1  0  0  0  0
 26 27  2  0  0  0  0
 27 28  1  0  0  0  0
 28 29  1  0  0  0  0
 29 30  1  0  0  0  0
 30 31  1  0  0  0  0
 31 32  1  0  0  0  0
 32 33  1  0  0  0  0
 31 34  2  0  0  0  0
 34 35  1  0  0  0  0
 35 36  1  0  0  0  0
 34 37  1  0  0  0  0
 28 38  2  0  0  0  0
 38 39  1  0  0  0  0
 27 40  1  0  0  0  0
 40 41  2  0  0  0  0
 41 42  1  0  0  0  0
 41 43  1  0  0  0  0
 43 44  1  0  0  0  0
 44 45  1  0  0  0  0
 45 46  2  0  0  0  0
 46 47  1  0  0  0  0
 47 48  1  0  0  0  0
 48 49  2  0  0  0  0
 49 50  1  0  0  0  0
 49 51  1  0  0  0  0
 51 52  1  0  0  0  0
 52 53  1  0  0  0  0
 51 54  2  0  0  0  0
 45 55  1  0  0  0  0
 55 56  1  0  0  0  0
 56 57  1  0  0  0  0
 57 58  2  0  0  0  0
 58 59  1  0  0  0  0
 59 60  1  0  0  0  0
 60 61  2  0  0  0  0
 61 62  1  0  0  0  0
 61 63  1  0  0  0  0
 63 64  1  0  0  0  0
 64 65  1  0  0  0  0
 63 66  2  0  0  0  0
 57 67  1  0  0  0  0
 67 68  2  0  0  0  0
 68 69  1  0  0  0  0
 69 70  2  0  0  0  0
 70 71  1  0  0  0  0
 71 72  1  0  0  0  0
 72 73  1  0  0  0  0
 73 74  1  0  0  0  0
 74 75  1  0  0  0  0
 73 76  2  0  0  0  0
 76 77  1  0  0  0  0
 76 78  1  0  0  0  0
 78 79  1  0  0  0  0
 70 80  1  0  0  0  0
 80 81  2  0  0  0  0
 81 82  1  0  0  0  0
 82 83  1  0  0  0  0
 83 84  1  0  0  0  0
 84 85  1  0  0  0  0
 85 86  1  0  0  0  0
 86 87  1  0  0  0  0
 85 88  2  0  0  0  0
 88 89  1  0  0  0  0
 89 90  1  0  0  0  0
 88 91  1  0  0  0  0
 82 92  2  0  0  0  0
 92 93  1  0  0  0  0
 81 94  1  0  0  0  0
 94 95  2  0  0  0  0
 95 96  1  0  0  0  0
 95 97  1  0  0  0  0
 97 98  2  0  0  0  0
 98 99  1  0  0  0  0
 99100  2  0  0  0  0
100101  1  0  0  0  0
101102  1  0  0  0  0
102103  1  0  0  0  0
103104  1  0  0  0  0
104105  1  0  0  0  0
103106  2  0  0  0  0
106107  1  0  0  0  0
106108  1  0  0  0  0
108109  1  0  0  0  0
100110  1  0  0  0  0
110111  2  0  0  0  0
111112  1  0  0  0  0
112113  1  0  0  0  0
113114  1  0  0  0  0
114115  1  0  0  0  0
115116  1  0  0  0  0
116117  1  0  0  0  0
115118  2  0  0  0  0
118119  1  0  0  0  0
119120  1  0  0  0  0
118121  1  0  0  0  0
112122  2  0  0  0  0
122123  1  0  0  0  0
111124  1  0  0  0  0
124125  2  0  0  0  0
125126  1  0  0  0  0
  5  1  2  0  0  0  0
 39 13  1  0  0  0  0
 47 43  2  0  0  0  0
 59 55  2  0  0  0  0
 93 67  1  0  0  0  0
123 97  1  0  0  0  0
 12  4  1  0  0  0  0
 38 15  1  0  0  0  0
 54 46  1  0  0  0  0
 66 58  1  0  0  0  0
 92 69  1  0  0  0  0
122 99  1  0  0  0  0
 24 17  2  0  0  0  0
 42 26  1  0  0  0  0
 78 71  2  0  0  0  0
 96 80  1  0  0  0  0
108101  2  0  0  0  0
126110  1  0  0  0  0
 35 29  2  0  0  0  0
 89 83  2  0  0  0  0
119113  2  0  0  0  0
  1127  1  0  0  0  0
  6128  1  0  0  0  0
  8129  1  0  0  0  0
  8130  1  0  0  0  0
  8131  1  0  0  0  0
 11132  1  0  0  0  0
 11133  1  0  0  0  0
 11134  1  0  0  0  0
 12135  1  0  0  0  0
 14136  1  0  0  0  0
 20137  1  0  0  0  0
 20138  1  0  0  0  0
 21139  1  0  0  0  0
 21140  1  0  0  0  0
 21141  1  0  0  0  0
 32142  1  0  0  0  0
 32143  1  0  0  0  0
 33144  1  0  0  0  0
 33145  1  0  0  0  0
 33146  1  0  0  0  0
 40147  1  0  0  0  0
 48148  1  0  0  0  0
 50149  1  0  0  0  0
 50150  1  0  0  0  0
 50151  1  0  0  0  0
 53152  1  0  0  0  0
 53153  1  0  0  0  0
 53154  1  0  0  0  0
 54155  1  0  0  0  0
 60156  1  0  0  0  0
 62157  1  0  0  0  0
 62158  1  0  0  0  0
 62159  1  0  0  0  0
 65160  1  0  0  0  0
 65161  1  0  0  0  0
 65162  1  0  0  0  0
 66163  1  0  0  0  0
 68164  1  0  0  0  0
 74165  1  0  0  0  0
 74166  1  0  0  0  0
 75167  1  0  0  0  0
 75168  1  0  0  0  0
 75169  1  0  0  0  0
 86170  1  0  0  0  0
 86171  1  0  0  0  0
 87172  1  0  0  0  0
 87173  1  0  0  0  0
 87174  1  0  0  0  0
 94175  1  0  0  0  0
 98176  1  0  0  0  0
104177  1  0  0  0  0
104178  1  0  0  0  0
105179  1  0  0  0  0
105180  1  0  0  0  0
105181  1  0  0  0  0
116182  1  0  0  0  0
116183  1  0  0  0  0
117184  1  0  0  0  0
117185  1  0  0  0  0
117186  1  0  0  0  0
124187  1  0  0  0  0
125188  1  0  0  0  0
M  END
