130

C         10.83650       -0.25230        6.32400
C         11.43650       -1.51540        6.93280
O         12.50910       -1.65460        7.43240
O         10.53760       -2.53320        6.82830
C          9.40510       -2.08150        6.20710
C          9.49950       -0.72780        5.86890
C          8.46290       -0.07800        5.22600
C          7.34790       -0.84960        4.95190
C          7.25070       -2.19980        5.29370
C          8.28890       -2.85170        5.93330
C          5.91120       -2.68200        4.84350
C          5.33430       -1.41290        4.19240
O          4.26370       -1.28900        3.67930
O          6.21830       -0.40030        4.31230
C          4.94380       -3.09770        5.91680
C          5.15720       -2.97200        7.21510
C          4.13350       -3.27380        8.27530
C          3.72220       -1.92460        8.89700
O          4.42900       -1.14130        9.45250
O          2.40220       -1.72010        8.69360
C          1.86100       -2.80490        8.04750
C          2.81920       -3.78600        7.78500
C          2.47700       -4.97060        7.15850
C          1.14430       -5.10520        6.81250
C          0.18800       -4.11940        7.06880
C          0.52890       -2.93730        7.69930
C         -1.12230       -4.61640        6.55360
C         -0.73750       -6.01160        6.03270
O         -1.44700       -6.83370        5.54390
O          0.60050       -6.20050        6.19690
C         -1.73510       -3.82810        5.43120
C         -1.08490       -2.92550        4.68480
C         -1.67590       -2.20310        3.60870
S         -3.33810       -2.43250        3.17930
C         -3.27190       -1.28300        1.87780
C         -1.98350       -0.72840        1.79650
C         -1.08310       -1.25420        2.77340
C          0.25430       -0.79940        2.79520
C          0.69160        0.13810        1.90690
C          2.09910        0.63620        1.90180
C         -0.22470        0.68300        0.95400
O          0.30680        1.62570        0.12630
C         -0.50670        2.17100       -0.87980
C         -1.52720        0.26440        0.90690
C         -4.39060       -1.07910        1.03310
S         -4.17670       -0.38750       -0.55100
C         -5.83640       -0.58700       -0.96770
C         -6.55560       -1.12820        0.07910
C         -5.73740       -1.42080        1.21920
C         -6.36220       -1.95800        2.36500
C         -7.70340       -2.20100        2.38780
C         -8.38200       -2.75870        3.59670
C         -8.50760       -1.90890        1.23760
O         -9.83050       -2.17830        1.39220
C        -10.70410       -1.84930        0.33950
C         -7.94480       -1.39030        0.10600
C         -6.33560       -0.12620       -2.30530
C         -7.13390        1.17800       -2.13300
O         -8.16320        1.33390       -1.55140
O         -6.47300        2.19420       -2.74400
C         -5.35560        1.70350       -3.36870
C         -5.22440        0.32420       -3.19590
C         -4.15960       -0.37100       -3.73860
C         -3.24950        0.38960       -4.44890
C         -3.37600        1.77010       -4.61760
C         -4.44580        2.46270       -4.08250
C         -2.21570        2.23120       -5.43660
C         -1.45400        0.91210       -5.65620
O         -0.43680        0.75890       -6.26040
O         -2.12050       -0.09970       -5.05810
C         -2.58500        2.83350       -6.76690
C         -1.67840        3.15840       -7.67370
C         -2.03960        3.67530       -9.04180
C         -2.92460        2.65160       -9.77310
O         -3.98400        2.23090       -9.42110
O         -2.31510        2.26050      -10.91480
C         -1.11420        2.91460      -11.04220
C         -0.88120        3.78730       -9.97740
C          0.27550        4.54080       -9.90860
C          1.16550        4.37150      -10.95430
C          0.93260        3.49870      -12.01950
C         -0.22460        2.74480      -12.08750
C          2.11190        3.57710      -12.93150
C          2.96950        4.64440      -12.23370
O          4.01590        5.08830      -12.59150
O          2.35970        5.03140      -11.08400
C          2.93180        2.31890      -13.07230
C          2.75040        1.21410      -12.37570
H         11.47070        0.11050        5.51330
H         10.78390        0.53530        7.07780
H          8.51100        0.96230        4.95270
H          8.23830       -3.89270        6.20400
H          5.97650       -3.47310        4.08940
H          4.00190       -3.46580        5.53530
H          6.08950       -2.58330        7.59990
H          4.58360       -3.90440        9.04820
H          3.19730       -5.74380        6.95110
H         -0.19230       -2.16480        7.90470
H         -1.86400       -4.73600        7.35070
H         -2.76310       -4.07600        5.21100
H         -0.04840       -2.69310        4.89130
H          0.94520       -1.20210        3.51970
H          2.12260        1.68240        2.20510
H          2.50650        0.58430        0.89400
H          2.72150        0.05400        2.57370
H         -0.88750        1.39580       -1.55430
H          0.13310        2.85430       -1.43680
H         -1.35160        2.72770       -0.46000
H         -2.21580        0.70060        0.20570
H         -5.77580       -2.16410        3.24540
H         -7.66550       -2.94300        4.39220
H         -9.14330       -2.06500        3.95040
H         -8.88680       -3.68970        3.34400
H        -10.65130       -0.78410        0.09450
H        -10.48900       -2.43830       -0.55810
H        -11.70320       -2.09190        0.69810
H         -8.53080       -1.13540       -0.76020
H         -6.97820       -0.89490       -2.74750
H         -4.03610       -1.43290       -3.61130
H         -4.56640        3.52590       -4.20330
H         -1.56140        2.91740       -4.88800
H         -3.64110        2.93300       -6.96960
H         -0.62500        3.01030       -7.48620
H         -2.60100        4.61110       -8.94880
H          0.47820        5.21770       -9.09600
H         -0.42260        2.06320      -12.89720
H          1.84770        3.93760      -13.93140
H          3.73680        2.40440      -13.78800
H          1.96410        1.11080      -11.64650
H          3.38580        0.35760      -12.51790
