182

C         12.71520       -6.63470        0.25000
S         11.24420       -7.07350        0.99600
C         10.31120       -6.06790       -0.07540
C         11.15320       -5.38210       -0.95300
C         12.53150       -5.72780       -0.76900
C         13.51440       -5.11880       -1.58780
C         13.16270       -4.18880       -2.51560
C         14.16820       -3.52070       -3.39750
C         11.78640       -3.80290       -2.64960
O         11.56460       -2.83700       -3.58380
C         10.24580       -2.39760       -3.79310
C         10.80950       -4.37730       -1.88310
C          8.89840       -6.00650        0.04600
S          8.15580       -6.04430        1.61000
C          6.54570       -5.82050        0.97290
C          6.60020       -5.77670       -0.43630
C          7.92530       -5.89790       -0.95170
C          8.12640       -5.97240       -2.34680
C          7.08160       -5.84250       -3.21310
C          7.26470       -5.90150       -4.69600
C          5.76340       -5.66270       -2.69490
O          4.79520       -5.52920       -3.64110
C          3.46610       -5.33390       -3.22330
C          5.52990       -5.66160       -1.34270
C          5.45140       -5.61700        1.83440
S          3.94800       -4.98710        1.22260
C          3.21940       -4.86590        2.79810
C          4.13400       -5.27270        3.77950
C          5.37040       -5.73640        3.23850
C          6.33940       -6.24100        4.12800
C          6.14660       -6.21190        5.47990
C          7.16230       -6.75210        6.43410
C          4.95940       -5.62500        6.01080
O          4.90240       -5.57840        7.36990
C          3.76220       -5.02000        7.97390
C          3.97470       -5.16740        5.17500
C          1.91800       -4.33180        2.88580
S          1.40800       -3.21130        1.66230
C         -0.11360       -2.89750        2.44410
C         -0.24190       -3.68310        3.59540
C          0.89110       -4.52340        3.82360
C          0.82910       -5.49370        4.84400
C         -0.24790       -5.56690        5.67900
C         -0.33690       -6.58480        6.77120
C         -1.33930       -4.66290        5.50070
O         -2.34470       -4.80650        6.40790
C         -3.44590       -3.93770        6.32960
C         -1.34840       -3.76550        4.46470
C         -0.97000       -1.93980        1.84610
C         -1.97910       -1.17680        2.37060
C         -2.53890       -0.25060        1.45680
C         -3.57090        0.68150        1.67410
C         -4.22450        0.83180        2.97970
C         -5.61500        0.86440        3.07870
C         -6.23170        1.01750        4.30190
C         -5.49150        1.14950        5.47400
S         -6.37830        1.41520        6.98530
C         -5.56460        0.26170        8.15150
C         -5.72250       -1.17980        7.70970
C         -4.10510        1.13550        5.35980
F         -3.32060        1.28860        6.45110
C         -3.47380        0.97040        4.14380
C         -3.93900        1.47220        0.59310
C         -3.34640        1.35880       -0.68770
C         -2.33450        0.41040       -0.91300
C         -1.74280        0.22020       -2.24340
C         -0.36370        0.24610       -2.43440
C          0.17590        0.03060       -3.68640
C         -0.63870       -0.22370       -4.78310
S          0.10460       -0.48540       -6.37630
C         -0.52630       -2.15990       -6.77010
C          0.01830       -3.19930       -5.81020
C         -2.01420       -0.22860       -4.58360
C         -2.56890       -0.01650       -3.33880
F         -2.85350       -0.45270       -5.62000
C         -1.93920       -0.34650        0.17400
S         -0.69060       -1.55900        0.14920
C         -3.84010        2.32650       -1.59360
C         -4.77240        3.16140       -1.04810
S         -5.10450        2.77130        0.62720
C         -5.42720        4.25070       -1.69900
C         -5.30930        4.60690       -3.01080
C         -6.06920        5.75030       -3.36210
C         -6.16810        6.36460       -4.62100
C         -5.48030        5.80500       -5.79040
C         -5.61420        4.45830       -6.11950
C         -4.94450        3.91410       -7.19770
C         -4.10520        4.69660       -7.98350
S         -3.18810        4.12400       -9.37360
C         -3.13640        2.31130       -9.15130
C         -2.30880        1.89690       -7.95150
C         -4.00380        6.05100       -7.65990
F         -3.21330        6.84540       -8.40870
C         -4.67080        6.60720       -6.59180
C         -6.94160        7.51430       -4.69020
C         -7.63230        8.05110       -3.57680
C         -7.54780        7.42580       -2.32390
C         -8.26280        7.95200       -1.15370
C         -9.63090        8.21430       -1.20380
C        -10.28750        8.72570       -0.10530
C         -9.61420        8.98990        1.08650
S        -10.57810        9.61470        2.43140
C         -9.47510       10.81410        3.26690
C         -9.00470       11.90600        2.32730
C         -8.25670        8.68870        1.13280
C         -7.58320        8.19120        0.03540
F         -7.54030        8.88140        2.26200
C         -6.75490        6.29040       -2.24630
S         -6.48880        5.32770       -0.81530
C         -8.33900        9.24160       -3.92340
C         -8.21490        9.56570       -5.22610
S         -7.22880        8.46470       -6.12570
H         13.63550       -7.05870        0.59830
H         14.54870       -5.39940       -1.45570
H         15.16840       -3.89410       -3.19600
H         13.92270       -3.69620       -4.44360
H         14.14730       -2.44400       -3.23720
H         10.30490       -1.65560       -4.58790
H          9.82920       -1.93260       -2.89370
H          9.59290       -3.21810       -4.10860
H          9.78020       -4.06890       -1.95430
H          9.12120       -6.15630       -2.72230
H          6.67240       -6.71380       -5.11400
H          6.91190       -4.97770       -5.15250
H          8.31020       -6.05370       -4.95120
H          2.88530       -5.21390       -4.13670
H          3.08820       -6.19710       -2.66630
H          3.36520       -4.43530       -2.60660
H          4.52480       -5.59410       -0.96910
H          7.24890       -6.67240        3.74340
H          8.01400       -7.16380        5.90020
H          6.71670       -7.52770        7.05510
H          7.50380       -5.96170        7.10080
H          2.85340       -5.56840        7.70500
H          3.92830       -5.09980        9.04710
H          3.63880       -3.96620        7.70400
H          3.08430       -4.69880        5.55690
H          1.62990       -6.21090        4.93640
H          0.53270       -7.23690        6.76410
H         -0.40840       -6.09000        7.73910
H         -1.23600       -7.18650        6.65000
H         -4.00040       -4.07010        5.39460
H         -4.09000       -4.19930        7.16770
H         -3.13530       -2.89180        6.42270
H         -2.20250       -3.13860        4.27810
H         -2.29460       -1.24370        3.39410
H         -6.21690        0.74720        2.19100
H         -7.30790        1.03920        4.37190
H         -6.08020        0.44330        9.09410
H         -4.52010        0.54420        8.25970
H         -5.24400       -1.34250        6.74520
H         -6.77570       -1.43570        7.61690
H         -5.26370       -1.84270        8.44060
H         -2.39550        0.99740        4.11110
H          0.28810        0.44360       -1.59780
H          1.24440        0.05190       -3.83290
H         -1.61410       -2.13180       -6.76360
H         -0.18090       -2.34110       -7.78740
H         -0.33300       -4.18820       -6.09870
H          1.10610       -3.19570       -5.82620
H         -0.31260       -2.99690       -4.79260
H         -3.64180       -0.05120       -3.22730
H         -3.48330        2.41920       -2.60280
H         -4.68560        4.08160       -3.70980
H         -6.27180        3.83160       -5.53580
H         -5.08610        2.86990       -7.42550
H         -4.15760        1.93500       -9.10340
H         -2.68110        1.95830      -10.07660
H         -1.28880        2.26110       -8.04750
H         -2.28300        0.81230       -7.88070
H         -2.72920        2.29270       -7.02930
H         -4.53250        7.65470       -6.37600
H        -10.18150        8.00390       -2.10810
H        -11.34570        8.93250       -0.14830
H         -8.64380       10.27760        3.71850
H        -10.10640       11.22090        4.05700
H         -9.85430       12.40800        1.86870
H         -8.37770       11.49590        1.53780
H         -8.42180       12.63900        2.88120
H         -6.52510        7.99970        0.12260
H         -8.89950        9.82310       -3.21410
H         -8.64140       10.40510       -5.73970
