
  xtb     03042209583D
 energy: -265.847237771125 gnorm: 0.000876840727 xtb: 6.4.1 (unknown)
110117  0     0  0            999 V2000
    8.4106   -2.6174    1.8837 C   0  0  0  0  0  0  0  0  0  0  0  0
    7.0232   -2.2390    2.8005 S   0  0  0  0  0  0  0  0  0  0  0  0
    7.3562   -3.5049    3.9354 C   0  0  0  0  0  0  0  0  0  0  0  0
    8.5142   -4.1673    3.5959 C   0  0  0  0  0  0  0  0  0  0  0  0
    9.1143   -3.6601    2.4119 C   0  0  0  0  0  0  0  0  0  0  0  0
   10.3777   -4.1645    1.7793 C   0  0  0  0  0  0  0  0  0  0  0  0
   10.7408   -3.3861    0.7464 F   0  0  0  0  0  0  0  0  0  0  0  0
   10.2507   -5.4037    1.2861 F   0  0  0  0  0  0  0  0  0  0  0  0
   11.4125   -4.1726    2.6273 F   0  0  0  0  0  0  0  0  0  0  0  0
    8.9967   -5.3125    4.4337 C   0  0  0  0  0  0  0  0  0  0  0  0
    9.4534   -4.8923    5.6295 F   0  0  0  0  0  0  0  0  0  0  0  0
    9.9698   -6.0270    3.8775 F   0  0  0  0  0  0  0  0  0  0  0  0
    7.9954   -6.1722    4.7050 F   0  0  0  0  0  0  0  0  0  0  0  0
    6.5657   -3.7009    5.1316 C   0  0  0  0  0  0  0  0  0  0  0  0
    5.2303   -3.8018    5.2150 C   0  0  0  0  0  0  0  0  0  0  0  0
    4.2962   -3.9374    4.1334 C   0  0  0  0  0  0  0  0  0  0  0  0
    4.7407   -4.5601    2.5767 S   0  0  0  0  0  0  0  0  0  0  0  0
    3.0959   -4.5451    2.0073 C   0  0  0  0  0  0  0  0  0  0  0  0
    2.2423   -4.1224    3.0136 C   0  0  0  0  0  0  0  0  0  0  0  0
    2.9285   -3.7554    4.1977 C   0  0  0  0  0  0  0  0  0  0  0  0
    2.2978   -3.1542    5.4180 C   0  0  0  0  0  0  0  0  0  0  0  0
    3.0354   -2.1227    5.8829 F   0  0  0  0  0  0  0  0  0  0  0  0
    2.2057   -4.0260    6.4362 F   0  0  0  0  0  0  0  0  0  0  0  0
    1.0801   -2.6566    5.2131 F   0  0  0  0  0  0  0  0  0  0  0  0
    0.7514   -4.2778    2.9774 C   0  0  0  0  0  0  0  0  0  0  0  0
    0.0648   -3.1314    2.8528 F   0  0  0  0  0  0  0  0  0  0  0  0
    0.3345   -5.0665    1.9756 F   0  0  0  0  0  0  0  0  0  0  0  0
    0.3091   -4.8662    4.1011 F   0  0  0  0  0  0  0  0  0  0  0  0
    2.8551   -4.9263    0.6485 C   0  0  0  0  0  0  0  0  0  0  0  0
    1.9867   -4.3685   -0.2299 C   0  0  0  0  0  0  0  0  0  0  0  0
    1.2065   -3.1907   -0.0820 C   0  0  0  0  0  0  0  0  0  0  0  0
   -0.3076   -3.1180   -0.9222 S   0  0  0  0  0  0  0  0  0  0  0  0
   -0.7493   -1.5969   -0.2171 C   0  0  0  0  0  0  0  0  0  0  0  0
    0.2850   -1.1370    0.6232 C   0  0  0  0  0  0  0  0  0  0  0  0
    1.4021   -2.0229    0.6655 C   0  0  0  0  0  0  0  0  0  0  0  0
    2.5536   -1.6364    1.3817 C   0  0  0  0  0  0  0  0  0  0  0  0
    2.5568   -0.5072    2.1473 C   0  0  0  0  0  0  0  0  0  0  0  0
    3.7464   -0.0973    2.9506 C   0  0  0  0  0  0  0  0  0  0  0  0
    1.3815    0.3034    2.2097 C   0  0  0  0  0  0  0  0  0  0  0  0
    1.4710    1.3599    3.0482 O   0  0  0  0  0  0  0  0  0  0  0  0
    0.3542    2.2052    3.1978 C   0  0  0  0  0  0  0  0  0  0  0  0
    0.2869    0.0116    1.4329 C   0  0  0  0  0  0  0  0  0  0  0  0
   -1.9705   -0.9694   -0.5517 C   0  0  0  0  0  0  0  0  0  0  0  0
   -2.1536    0.7503   -0.4011 S   0  0  0  0  0  0  0  0  0  0  0  0
   -3.7782    0.7298   -1.0089 C   0  0  0  0  0  0  0  0  0  0  0  0
   -4.1534   -0.5677   -1.3713 C   0  0  0  0  0  0  0  0  0  0  0  0
   -3.1389   -1.5330   -1.0958 C   0  0  0  0  0  0  0  0  0  0  0  0
   -3.4193   -2.8905   -1.3516 C   0  0  0  0  0  0  0  0  0  0  0  0
   -4.6024   -3.2709   -1.9155 C   0  0  0  0  0  0  0  0  0  0  0  0
   -4.9243   -4.7041   -2.1826 C   0  0  0  0  0  0  0  0  0  0  0  0
   -5.5692   -2.2812   -2.2820 C   0  0  0  0  0  0  0  0  0  0  0  0
   -6.6741   -2.7695   -2.8855 O   0  0  0  0  0  0  0  0  0  0  0  0
   -7.7028   -1.8772   -3.2507 C   0  0  0  0  0  0  0  0  0  0  0  0
   -5.3442   -0.9546   -2.0119 C   0  0  0  0  0  0  0  0  0  0  0  0
   -4.4955    1.9528   -1.1069 C   0  0  0  0  0  0  0  0  0  0  0  0
   -3.6650    3.3753   -1.6813 S   0  0  0  0  0  0  0  0  0  0  0  0
   -5.0945    4.3527   -1.5588 C   0  0  0  0  0  0  0  0  0  0  0  0
   -6.1496    3.6027   -1.0890 C   0  0  0  0  0  0  0  0  0  0  0  0
   -5.8172    2.2518   -0.8137 C   0  0  0  0  0  0  0  0  0  0  0  0
   -6.7406    1.3375   -0.0680 C   0  0  0  0  0  0  0  0  0  0  0  0
   -6.0949    0.3368    0.5468 F   0  0  0  0  0  0  0  0  0  0  0  0
   -7.4000    1.9906    0.8987 F   0  0  0  0  0  0  0  0  0  0  0  0
   -7.6769    0.7554   -0.8421 F   0  0  0  0  0  0  0  0  0  0  0  0
   -7.5151    4.2045   -0.9404 C   0  0  0  0  0  0  0  0  0  0  0  0
   -7.7542    5.1208   -1.8996 F   0  0  0  0  0  0  0  0  0  0  0  0
   -7.6714    4.8477    0.2284 F   0  0  0  0  0  0  0  0  0  0  0  0
   -8.5037    3.3141   -1.0392 F   0  0  0  0  0  0  0  0  0  0  0  0
   -5.0658    5.7724   -1.8048 C   0  0  0  0  0  0  0  0  0  0  0  0
   -4.3548    6.3952   -2.7568 C   0  0  0  0  0  0  0  0  0  0  0  0
   -3.6746    5.7572   -3.8587 C   0  0  0  0  0  0  0  0  0  0  0  0
   -4.4133    4.4395   -4.7048 S   0  0  0  0  0  0  0  0  0  0  0  0
   -3.1454    4.3804   -5.8838 C   0  0  0  0  0  0  0  0  0  0  0  0
   -2.2092    5.3645   -5.6359 C   0  0  0  0  0  0  0  0  0  0  0  0
   -2.5008    6.1309   -4.4764 C   0  0  0  0  0  0  0  0  0  0  0  0
   -1.5923    7.1783   -3.9016 C   0  0  0  0  0  0  0  0  0  0  0  0
   -1.7177    8.3703   -4.5042 F   0  0  0  0  0  0  0  0  0  0  0  0
   -1.8398    7.3967   -2.5976 F   0  0  0  0  0  0  0  0  0  0  0  0
   -0.3028    6.8275   -3.9669 F   0  0  0  0  0  0  0  0  0  0  0  0
   -1.0221    5.6039   -6.5225 C   0  0  0  0  0  0  0  0  0  0  0  0
    0.0153    4.8052   -6.2117 F   0  0  0  0  0  0  0  0  0  0  0  0
   -1.2963    5.3648   -7.8174 F   0  0  0  0  0  0  0  0  0  0  0  0
   -0.5785    6.8610   -6.4803 F   0  0  0  0  0  0  0  0  0  0  0  0
   -3.1559    3.3748   -6.9158 C   0  0  0  0  0  0  0  0  0  0  0  0
   -4.1587    2.5200   -7.0993 C   0  0  0  0  0  0  0  0  0  0  0  0
    8.6517   -2.0557    1.0032 H   0  0  0  0  0  0  0  0  0  0  0  0
    7.1386   -3.7498    6.0485 H   0  0  0  0  0  0  0  0  0  0  0  0
    4.7950   -3.8557    6.2033 H   0  0  0  0  0  0  0  0  0  0  0  0
    3.4736   -5.7406    0.2956 H   0  0  0  0  0  0  0  0  0  0  0  0
    1.8398   -4.8932   -1.1659 H   0  0  0  0  0  0  0  0  0  0  0  0
    3.4506   -2.2293    1.3033 H   0  0  0  0  0  0  0  0  0  0  0  0
    3.5068   -0.1378    4.0123 H   0  0  0  0  0  0  0  0  0  0  0  0
    4.5946   -0.7469    2.7520 H   0  0  0  0  0  0  0  0  0  0  0  0
    4.0154    0.9318    2.7219 H   0  0  0  0  0  0  0  0  0  0  0  0
    0.6477    2.9497    3.9358 H   0  0  0  0  0  0  0  0  0  0  0  0
    0.1020    2.7052    2.2574 H   0  0  0  0  0  0  0  0  0  0  0  0
   -0.5167    1.6537    3.5639 H   0  0  0  0  0  0  0  0  0  0  0  0
   -0.5847    0.6409    1.4570 H   0  0  0  0  0  0  0  0  0  0  0  0
   -2.6993   -3.6467   -1.0853 H   0  0  0  0  0  0  0  0  0  0  0  0
   -5.8434   -4.9799   -1.6686 H   0  0  0  0  0  0  0  0  0  0  0  0
   -4.1180   -5.3513   -1.8502 H   0  0  0  0  0  0  0  0  0  0  0  0
   -5.0935   -4.8561   -3.2474 H   0  0  0  0  0  0  0  0  0  0  0  0
   -8.0924   -1.3356   -2.3849 H   0  0  0  0  0  0  0  0  0  0  0  0
   -7.3596   -1.1604   -4.0032 H   0  0  0  0  0  0  0  0  0  0  0  0
   -8.4902   -2.4969   -3.6759 H   0  0  0  0  0  0  0  0  0  0  0  0
   -6.0580   -0.1978   -2.2871 H   0  0  0  0  0  0  0  0  0  0  0  0
   -5.6438    6.3750   -1.1172 H   0  0  0  0  0  0  0  0  0  0  0  0
   -4.3220    7.4757   -2.7513 H   0  0  0  0  0  0  0  0  0  0  0  0
   -2.2849    3.3303   -7.5519 H   0  0  0  0  0  0  0  0  0  0  0  0
   -5.0422    2.5412   -6.4817 H   0  0  0  0  0  0  0  0  0  0  0  0
   -4.1239    1.7760   -7.8743 H   0  0  0  0  0  0  0  0  0  0  0  0
  1  2  1  0  0  0  0
  2  3  1  0  0  0  0
  3  4  2  0  0  0  0
  4  5  1  0  0  0  0
  5  6  1  0  0  0  0
  6  7  1  0  0  0  0
  6  8  1  0  0  0  0
  6  9  1  0  0  0  0
  4 10  1  0  0  0  0
 10 11  1  0  0  0  0
 10 12  1  0  0  0  0
 10 13  1  0  0  0  0
  3 14  1  0  0  0  0
 14 15  2  0  0  0  0
 15 16  1  0  0  0  0
 16 17  1  0  0  0  0
 17 18  1  0  0  0  0
 18 19  2  0  0  0  0
 19 20  1  0  0  0  0
 20 21  1  0  0  0  0
 21 22  1  0  0  0  0
 21 23  1  0  0  0  0
 21 24  1  0  0  0  0
 19 25  1  0  0  0  0
 25 26  1  0  0  0  0
 25 27  1  0  0  0  0
 25 28  1  0  0  0  0
 18 29  1  0  0  0  0
 29 30  2  0  0  0  0
 30 31  1  0  0  0  0
 31 32  1  0  0  0  0
 32 33  1  0  0  0  0
 33 34  2  0  0  0  0
 34 35  1  0  0  0  0
 35 36  1  0  0  0  0
 36 37  2  0  0  0  0
 37 38  1  0  0  0  0
 37 39  1  0  0  0  0
 39 40  1  0  0  0  0
 40 41  1  0  0  0  0
 39 42  2  0  0  0  0
 33 43  1  0  0  0  0
 43 44  1  0  0  0  0
 44 45  1  0  0  0  0
 45 46  2  0  0  0  0
 46 47  1  0  0  0  0
 47 48  1  0  0  0  0
 48 49  2  0  0  0  0
 49 50  1  0  0  0  0
 49 51  1  0  0  0  0
 51 52  1  0  0  0  0
 52 53  1  0  0  0  0
 51 54  2  0  0  0  0
 45 55  1  0  0  0  0
 55 56  1  0  0  0  0
 56 57  1  0  0  0  0
 57 58  2  0  0  0  0
 58 59  1  0  0  0  0
 59 60  1  0  0  0  0
 60 61  1  0  0  0  0
 60 62  1  0  0  0  0
 60 63  1  0  0  0  0
 58 64  1  0  0  0  0
 64 65  1  0  0  0  0
 64 66  1  0  0  0  0
 64 67  1  0  0  0  0
 57 68  1  0  0  0  0
 68 69  2  0  0  0  0
 69 70  1  0  0  0  0
 70 71  1  0  0  0  0
 71 72  1  0  0  0  0
 72 73  2  0  0  0  0
 73 74  1  0  0  0  0
 74 75  1  0  0  0  0
 75 76  1  0  0  0  0
 75 77  1  0  0  0  0
 75 78  1  0  0  0  0
 73 79  1  0  0  0  0
 79 80  1  0  0  0  0
 79 81  1  0  0  0  0
 79 82  1  0  0  0  0
 72 83  1  0  0  0  0
 83 84  2  0  0  0  0
  5  1  2  0  0  0  0
 20 16  2  0  0  0  0
 35 31  2  0  0  0  0
 47 43  2  0  0  0  0
 59 55  2  0  0  0  0
 74 70  2  0  0  0  0
 42 34  1  0  0  0  0
 54 46  1  0  0  0  0
  1 85  1  0  0  0  0
 14 86  1  0  0  0  0
 15 87  1  0  0  0  0
 29 88  1  0  0  0  0
 30 89  1  0  0  0  0
 36 90  1  0  0  0  0
 38 91  1  0  0  0  0
 38 92  1  0  0  0  0
 38 93  1  0  0  0  0
 41 94  1  0  0  0  0
 41 95  1  0  0  0  0
 41 96  1  0  0  0  0
 42 97  1  0  0  0  0
 48 98  1  0  0  0  0
 50 99  1  0  0  0  0
 50100  1  0  0  0  0
 50101  1  0  0  0  0
 53102  1  0  0  0  0
 53103  1  0  0  0  0
 53104  1  0  0  0  0
 54105  1  0  0  0  0
 68106  1  0  0  0  0
 69107  1  0  0  0  0
 83108  1  0  0  0  0
 84109  1  0  0  0  0
 84110  1  0  0  0  0
M  END
