
  xtb     03052208133D
 energy: -416.053410745266 gnorm: 0.000571201054 xtb: 6.4.1 (unknown)
242265  0     0  0            999 V2000
  -12.8377    0.8651   13.6482 C   0  0  0  0  0  0  0  0  0  0  0  0
  -13.0562    0.4472   12.0117 S   0  0  0  0  0  0  0  0  0  0  0  0
  -11.3522    0.5273   11.6821 C   0  0  0  0  0  0  0  0  0  0  0  0
  -10.6436    0.8511   12.8410 C   0  0  0  0  0  0  0  0  0  0  0  0
  -11.5113    1.0514   13.9654 C   0  0  0  0  0  0  0  0  0  0  0  0
  -10.9591    1.3918   15.2247 C   0  0  0  0  0  0  0  0  0  0  0  0
   -9.6145    1.5167   15.3795 C   0  0  0  0  0  0  0  0  0  0  0  0
   -8.9893    1.8739   16.6892 C   0  0  0  0  0  0  0  0  0  0  0  0
   -8.7468    1.2826   14.2592 C   0  0  0  0  0  0  0  0  0  0  0  0
   -7.4255    1.4164   14.5408 O   0  0  0  0  0  0  0  0  0  0  0  0
   -6.4909    1.2372   13.5038 C   0  0  0  0  0  0  0  0  0  0  0  0
   -9.2486    0.9530   13.0285 C   0  0  0  0  0  0  0  0  0  0  0  0
  -10.8799    0.2717   10.3641 C   0  0  0  0  0  0  0  0  0  0  0  0
   -9.7008    0.6429    9.7827 C   0  0  0  0  0  0  0  0  0  0  0  0
   -9.5442    0.1836    8.4527 C   0  0  0  0  0  0  0  0  0  0  0  0
   -8.4327    0.3529    7.6109 C   0  0  0  0  0  0  0  0  0  0  0  0
   -7.2067    1.0214    8.0650 C   0  0  0  0  0  0  0  0  0  0  0  0
   -6.6218    2.0374    7.3150 C   0  0  0  0  0  0  0  0  0  0  0  0
   -5.4576    2.6570    7.7284 C   0  0  0  0  0  0  0  0  0  0  0  0
   -4.8347    2.2819    8.9134 C   0  0  0  0  0  0  0  0  0  0  0  0
   -3.3415    2.9682    9.5502 S   0  0  0  0  0  0  0  0  0  0  0  0
   -3.0700    4.4753    8.5565 C   0  0  0  0  0  0  0  0  0  0  0  0
   -4.0595    5.5742    8.8922 C   0  0  0  0  0  0  0  0  0  0  0  0
   -5.4249    1.2527    9.6487 C   0  0  0  0  0  0  0  0  0  0  0  0
   -4.8391    0.8468   10.7981 F   0  0  0  0  0  0  0  0  0  0  0  0
   -6.5849    0.6293    9.2492 C   0  0  0  0  0  0  0  0  0  0  0  0
   -8.5357   -0.1769    6.3357 C   0  0  0  0  0  0  0  0  0  0  0  0
   -9.6756   -0.8751    5.8670 C   0  0  0  0  0  0  0  0  0  0  0  0
  -10.7798   -1.0632    6.7189 C   0  0  0  0  0  0  0  0  0  0  0  0
  -11.9567   -1.8194    6.2778 C   0  0  0  0  0  0  0  0  0  0  0  0
  -13.2419   -1.3123    6.4439 C   0  0  0  0  0  0  0  0  0  0  0  0
  -14.3504   -2.0151    6.0135 C   0  0  0  0  0  0  0  0  0  0  0  0
  -14.2152   -3.2586    5.4068 C   0  0  0  0  0  0  0  0  0  0  0  0
  -15.5386   -4.2436    4.7875 S   0  0  0  0  0  0  0  0  0  0  0  0
  -17.0211   -3.5538    5.5989 C   0  0  0  0  0  0  0  0  0  0  0  0
  -17.0389   -3.8248    7.0911 C   0  0  0  0  0  0  0  0  0  0  0  0
  -12.9207   -3.7555    5.2468 C   0  0  0  0  0  0  0  0  0  0  0  0
  -11.8080   -3.0659    5.6705 C   0  0  0  0  0  0  0  0  0  0  0  0
  -12.7458   -4.9547    4.6520 F   0  0  0  0  0  0  0  0  0  0  0  0
  -10.6856   -0.5176    7.9898 C   0  0  0  0  0  0  0  0  0  0  0  0
  -11.8895   -0.6398    9.2466 S   0  0  0  0  0  0  0  0  0  0  0  0
   -9.5223   -1.3069    4.5257 C   0  0  0  0  0  0  0  0  0  0  0  0
   -8.2995   -1.0189    3.9868 C   0  0  0  0  0  0  0  0  0  0  0  0
   -7.2834   -0.1404    5.1282 S   0  0  0  0  0  0  0  0  0  0  0  0
   -7.7338   -1.3059    2.7153 C   0  0  0  0  0  0  0  0  0  0  0  0
   -6.2275   -0.5402    2.3490 S   0  0  0  0  0  0  0  0  0  0  0  0
   -6.0794   -1.3354    0.8135 C   0  0  0  0  0  0  0  0  0  0  0  0
   -7.1871   -2.1567    0.5854 C   0  0  0  0  0  0  0  0  0  0  0  0
   -8.1242   -2.1492    1.6688 C   0  0  0  0  0  0  0  0  0  0  0  0
   -9.2599   -2.9825    1.5818 C   0  0  0  0  0  0  0  0  0  0  0  0
   -9.4822   -3.7597    0.4834 C   0  0  0  0  0  0  0  0  0  0  0  0
  -10.6743   -4.6537    0.3756 C   0  0  0  0  0  0  0  0  0  0  0  0
   -8.5537   -3.7343   -0.6059 C   0  0  0  0  0  0  0  0  0  0  0  0
   -8.8853   -4.5360   -1.6499 O   0  0  0  0  0  0  0  0  0  0  0  0
   -8.0217   -4.5865   -2.7589 C   0  0  0  0  0  0  0  0  0  0  0  0
   -7.4292   -2.9538   -0.5500 C   0  0  0  0  0  0  0  0  0  0  0  0
   -4.8867   -1.0938    0.0878 C   0  0  0  0  0  0  0  0  0  0  0  0
   -3.8743   -0.2941    0.5471 C   0  0  0  0  0  0  0  0  0  0  0  0
   -2.7420   -0.2388   -0.2893 C   0  0  0  0  0  0  0  0  0  0  0  0
   -1.5292    0.4236   -0.0226 C   0  0  0  0  0  0  0  0  0  0  0  0
   -1.4207    1.1836    1.2305 C   0  0  0  0  0  0  0  0  0  0  0  0
   -2.3682    2.1596    1.5390 C   0  0  0  0  0  0  0  0  0  0  0  0
   -2.4156    2.7207    2.7972 C   0  0  0  0  0  0  0  0  0  0  0  0
   -1.5186    2.3302    3.7849 C   0  0  0  0  0  0  0  0  0  0  0  0
   -1.7241    2.9695    5.4275 S   0  0  0  0  0  0  0  0  0  0  0  0
   -1.8389    1.4123    6.3874 C   0  0  0  0  0  0  0  0  0  0  0  0
   -3.0198    0.5664    5.9537 C   0  0  0  0  0  0  0  0  0  0  0  0
   -0.5127    1.4366    3.4335 C   0  0  0  0  0  0  0  0  0  0  0  0
    0.4237    1.0768    4.3355 F   0  0  0  0  0  0  0  0  0  0  0  0
   -0.4595    0.8579    2.1802 C   0  0  0  0  0  0  0  0  0  0  0  0
   -0.5104    0.2429   -0.9399 C   0  0  0  0  0  0  0  0  0  0  0  0
   -0.6768   -0.5509   -2.1025 C   0  0  0  0  0  0  0  0  0  0  0  0
   -1.8810   -1.2353   -2.3567 C   0  0  0  0  0  0  0  0  0  0  0  0
   -1.9703   -2.1317   -3.5165 C   0  0  0  0  0  0  0  0  0  0  0  0
   -2.9898   -2.0312   -4.4571 C   0  0  0  0  0  0  0  0  0  0  0  0
   -2.9964   -2.8309   -5.5849 C   0  0  0  0  0  0  0  0  0  0  0  0
   -1.9854   -3.7587   -5.8118 C   0  0  0  0  0  0  0  0  0  0  0  0
   -1.8808   -4.8168   -7.2193 S   0  0  0  0  0  0  0  0  0  0  0  0
   -2.6623   -3.8295   -8.5416 C   0  0  0  0  0  0  0  0  0  0  0  0
   -1.8884   -2.5584   -8.8292 C   0  0  0  0  0  0  0  0  0  0  0  0
   -0.9983   -3.8831   -4.8341 C   0  0  0  0  0  0  0  0  0  0  0  0
   -0.9787   -3.0938   -3.7076 C   0  0  0  0  0  0  0  0  0  0  0  0
   -0.0108   -4.7867   -5.0012 F   0  0  0  0  0  0  0  0  0  0  0  0
   -2.9006   -1.0457   -1.4437 C   0  0  0  0  0  0  0  0  0  0  0  0
   -4.4725   -1.8131   -1.4616 S   0  0  0  0  0  0  0  0  0  0  0  0
    0.4818   -0.5488   -2.9081 C   0  0  0  0  0  0  0  0  0  0  0  0
    1.5195    0.1726   -2.3899 C   0  0  0  0  0  0  0  0  0  0  0  0
    1.0955    0.9270   -0.8662 S   0  0  0  0  0  0  0  0  0  0  0  0
    2.8170    0.2499   -2.9800 C   0  0  0  0  0  0  0  0  0  0  0  0
    3.1593   -0.3253   -4.1702 C   0  0  0  0  0  0  0  0  0  0  0  0
    4.5303   -0.2125   -4.4906 C   0  0  0  0  0  0  0  0  0  0  0  0
    5.1876   -0.7571   -5.6082 C   0  0  0  0  0  0  0  0  0  0  0  0
    4.4389   -1.5652   -6.5788 C   0  0  0  0  0  0  0  0  0  0  0  0
    3.6022   -2.5987   -6.1528 C   0  0  0  0  0  0  0  0  0  0  0  0
    2.8344   -3.3044   -7.0534 C   0  0  0  0  0  0  0  0  0  0  0  0
    2.8723   -3.0115   -8.4162 C   0  0  0  0  0  0  0  0  0  0  0  0
    1.7822   -3.9113   -9.4750 S   0  0  0  0  0  0  0  0  0  0  0  0
    2.7607   -4.1267  -11.0154 C   0  0  0  0  0  0  0  0  0  0  0  0
    2.2657   -5.3617  -11.7417 C   0  0  0  0  0  0  0  0  0  0  0  0
    3.7266   -1.9944   -8.8312 C   0  0  0  0  0  0  0  0  0  0  0  0
    3.7998   -1.6430  -10.1353 F   0  0  0  0  0  0  0  0  0  0  0  0
    4.5075   -1.2867   -7.9393 C   0  0  0  0  0  0  0  0  0  0  0  0
    6.5406   -0.4836   -5.7184 C   0  0  0  0  0  0  0  0  0  0  0  0
    7.2494    0.2743   -4.7520 C   0  0  0  0  0  0  0  0  0  0  0  0
    6.5971    0.7868   -3.6169 C   0  0  0  0  0  0  0  0  0  0  0  0
    7.3487    1.5362   -2.6027 C   0  0  0  0  0  0  0  0  0  0  0  0
    8.5294    1.0226   -2.0662 C   0  0  0  0  0  0  0  0  0  0  0  0
    9.2548    1.7451   -1.1446 C   0  0  0  0  0  0  0  0  0  0  0  0
    8.8439    3.0101   -0.7282 C   0  0  0  0  0  0  0  0  0  0  0  0
    9.9065    3.8733    0.3922 S   0  0  0  0  0  0  0  0  0  0  0  0
    8.7640    4.7193    1.5444 C   0  0  0  0  0  0  0  0  0  0  0  0
    7.8367    3.7449    2.2416 C   0  0  0  0  0  0  0  0  0  0  0  0
    7.6649    3.5103   -1.2722 C   0  0  0  0  0  0  0  0  0  0  0  0
    6.9149    2.7869   -2.1781 C   0  0  0  0  0  0  0  0  0  0  0  0
    7.2176    4.7410   -0.9414 F   0  0  0  0  0  0  0  0  0  0  0  0
    5.2377    0.5382   -3.5192 C   0  0  0  0  0  0  0  0  0  0  0  0
    4.1866    1.0230   -2.2098 S   0  0  0  0  0  0  0  0  0  0  0  0
    8.6143    0.4184   -5.0986 C   0  0  0  0  0  0  0  0  0  0  0  0
    8.9635   -0.2285   -6.2460 C   0  0  0  0  0  0  0  0  0  0  0  0
    7.6008   -1.0409   -6.9903 S   0  0  0  0  0  0  0  0  0  0  0  0
   10.2730   -0.2909   -6.8060 C   0  0  0  0  0  0  0  0  0  0  0  0
   10.7081   -0.9381   -7.9224 C   0  0  0  0  0  0  0  0  0  0  0  0
   12.1051   -0.8041   -8.1465 C   0  0  0  0  0  0  0  0  0  0  0  0
   12.8729   -1.3103   -9.2074 C   0  0  0  0  0  0  0  0  0  0  0  0
   12.2800   -2.1797  -10.2304 C   0  0  0  0  0  0  0  0  0  0  0  0
   11.5318   -3.2985   -9.8652 C   0  0  0  0  0  0  0  0  0  0  0  0
   10.9742   -4.1141  -10.8255 C   0  0  0  0  0  0  0  0  0  0  0  0
   11.1414   -3.8547  -12.1848 C   0  0  0  0  0  0  0  0  0  0  0  0
   10.4121   -4.9997  -13.3187 S   0  0  0  0  0  0  0  0  0  0  0  0
    9.7835   -3.9487  -14.6803 C   0  0  0  0  0  0  0  0  0  0  0  0
    8.7982   -2.9089  -14.1863 C   0  0  0  0  0  0  0  0  0  0  0  0
   11.9160   -2.7529  -12.5341 C   0  0  0  0  0  0  0  0  0  0  0  0
   12.1537   -2.4554  -13.8305 F   0  0  0  0  0  0  0  0  0  0  0  0
   12.4687   -1.9191  -11.5830 C   0  0  0  0  0  0  0  0  0  0  0  0
   14.2189   -0.9671   -9.2223 C   0  0  0  0  0  0  0  0  0  0  0  0
   14.8304   -0.1663   -8.2265 C   0  0  0  0  0  0  0  0  0  0  0  0
   14.0675    0.3305   -7.1620 C   0  0  0  0  0  0  0  0  0  0  0  0
   14.6109    1.1955   -6.1073 C   0  0  0  0  0  0  0  0  0  0  0  0
   14.3737    0.9012   -4.7670 C   0  0  0  0  0  0  0  0  0  0  0  0
   14.7687    1.7644   -3.7658 C   0  0  0  0  0  0  0  0  0  0  0  0
   15.4054    2.9627   -4.0690 C   0  0  0  0  0  0  0  0  0  0  0  0
   15.8881    4.1625   -2.8719 S   0  0  0  0  0  0  0  0  0  0  0  0
   14.7343    3.8617   -1.4843 C   0  0  0  0  0  0  0  0  0  0  0  0
   13.2886    4.1135   -1.8657 C   0  0  0  0  0  0  0  0  0  0  0  0
   15.6860    3.2188   -5.4119 C   0  0  0  0  0  0  0  0  0  0  0  0
   15.3024    2.3628   -6.4214 C   0  0  0  0  0  0  0  0  0  0  0  0
   16.3338    4.3529   -5.7449 F   0  0  0  0  0  0  0  0  0  0  0  0
   12.7228   -0.0088   -7.1518 C   0  0  0  0  0  0  0  0  0  0  0  0
   11.5718    0.5324   -5.9616 S   0  0  0  0  0  0  0  0  0  0  0  0
   16.2312   -0.0204   -8.4530 C   0  0  0  0  0  0  0  0  0  0  0  0
   16.6530   -0.6672   -9.5580 C   0  0  0  0  0  0  0  0  0  0  0  0
   15.3906   -1.4963  -10.4026 S   0  0  0  0  0  0  0  0  0  0  0  0
  -13.6878    0.9548   14.2946 H   0  0  0  0  0  0  0  0  0  0  0  0
  -11.6259    1.5463   16.0599 H   0  0  0  0  0  0  0  0  0  0  0  0
   -8.3177    1.0793   17.0103 H   0  0  0  0  0  0  0  0  0  0  0  0
   -8.3919    2.7779   16.5832 H   0  0  0  0  0  0  0  0  0  0  0  0
   -9.7485    2.0316   17.4503 H   0  0  0  0  0  0  0  0  0  0  0  0
   -6.6530    1.9509   12.6905 H   0  0  0  0  0  0  0  0  0  0  0  0
   -5.5132    1.4176   13.9462 H   0  0  0  0  0  0  0  0  0  0  0  0
   -6.5190    0.2196   13.1041 H   0  0  0  0  0  0  0  0  0  0  0  0
   -8.5915    0.7434   12.2037 H   0  0  0  0  0  0  0  0  0  0  0  0
   -8.9783    1.2771   10.2596 H   0  0  0  0  0  0  0  0  0  0  0  0
   -7.0909    2.3597    6.3980 H   0  0  0  0  0  0  0  0  0  0  0  0
   -5.0337    3.4339    7.1132 H   0  0  0  0  0  0  0  0  0  0  0  0
   -3.0797    4.2096    7.5003 H   0  0  0  0  0  0  0  0  0  0  0  0
   -2.0559    4.7725    8.8238 H   0  0  0  0  0  0  0  0  0  0  0  0
   -3.9908    5.8350    9.9459 H   0  0  0  0  0  0  0  0  0  0  0  0
   -3.8381    6.4591    8.2992 H   0  0  0  0  0  0  0  0  0  0  0  0
   -5.0803    5.2618    8.6823 H   0  0  0  0  0  0  0  0  0  0  0  0
   -6.9840   -0.1771    9.8448 H   0  0  0  0  0  0  0  0  0  0  0  0
  -13.3784   -0.3419    6.8957 H   0  0  0  0  0  0  0  0  0  0  0  0
  -15.3257   -1.5757    6.1448 H   0  0  0  0  0  0  0  0  0  0  0  0
  -17.0863   -2.4915    5.3665 H   0  0  0  0  0  0  0  0  0  0  0  0
  -17.8433   -4.0677    5.1009 H   0  0  0  0  0  0  0  0  0  0  0  0
  -16.9927   -4.8952    7.2777 H   0  0  0  0  0  0  0  0  0  0  0  0
  -16.1913   -3.3539    7.5849 H   0  0  0  0  0  0  0  0  0  0  0  0
  -17.9563   -3.4342    7.5271 H   0  0  0  0  0  0  0  0  0  0  0  0
  -10.8342   -3.5148    5.5507 H   0  0  0  0  0  0  0  0  0  0  0  0
  -10.3151   -1.7804    3.9794 H   0  0  0  0  0  0  0  0  0  0  0  0
   -9.9594   -3.0197    2.3999 H   0  0  0  0  0  0  0  0  0  0  0  0
  -11.2808   -4.6070    1.2757 H   0  0  0  0  0  0  0  0  0  0  0  0
  -10.3545   -5.6814    0.2123 H   0  0  0  0  0  0  0  0  0  0  0  0
  -11.2806   -4.3651   -0.4817 H   0  0  0  0  0  0  0  0  0  0  0  0
   -7.0293   -4.9541   -2.4794 H   0  0  0  0  0  0  0  0  0  0  0  0
   -8.4816   -5.2825   -3.4586 H   0  0  0  0  0  0  0  0  0  0  0  0
   -7.9214   -3.6056   -3.2343 H   0  0  0  0  0  0  0  0  0  0  0  0
   -6.7150   -2.9339   -1.3558 H   0  0  0  0  0  0  0  0  0  0  0  0
   -3.9346    0.2142    1.4924 H   0  0  0  0  0  0  0  0  0  0  0  0
   -3.0866    2.4576    0.7904 H   0  0  0  0  0  0  0  0  0  0  0  0
   -3.1733    3.4473    3.0462 H   0  0  0  0  0  0  0  0  0  0  0  0
   -1.9477    1.7417    7.4201 H   0  0  0  0  0  0  0  0  0  0  0  0
   -0.8962    0.8784    6.2867 H   0  0  0  0  0  0  0  0  0  0  0  0
   -2.9020    0.2290    4.9250 H   0  0  0  0  0  0  0  0  0  0  0  0
   -3.0964   -0.3079    6.5967 H   0  0  0  0  0  0  0  0  0  0  0  0
   -3.9494    1.1274    6.0271 H   0  0  0  0  0  0  0  0  0  0  0  0
    0.3108    0.1326    1.9688 H   0  0  0  0  0  0  0  0  0  0  0  0
   -3.7746   -1.3034   -4.3167 H   0  0  0  0  0  0  0  0  0  0  0  0
   -3.7976   -2.7239   -6.2988 H   0  0  0  0  0  0  0  0  0  0  0  0
   -2.6427   -4.5002   -9.4002 H   0  0  0  0  0  0  0  0  0  0  0  0
   -3.7004   -3.6346   -8.2747 H   0  0  0  0  0  0  0  0  0  0  0  0
   -1.8898   -1.8987   -7.9633 H   0  0  0  0  0  0  0  0  0  0  0  0
   -0.8575   -2.7986   -9.0796 H   0  0  0  0  0  0  0  0  0  0  0  0
   -2.3400   -2.0316   -9.6675 H   0  0  0  0  0  0  0  0  0  0  0  0
   -0.1940   -3.2335   -2.9803 H   0  0  0  0  0  0  0  0  0  0  0  0
    0.5369   -1.0659   -3.8471 H   0  0  0  0  0  0  0  0  0  0  0  0
    2.4515   -0.8123   -4.8133 H   0  0  0  0  0  0  0  0  0  0  0  0
    3.5719   -2.8639   -5.1070 H   0  0  0  0  0  0  0  0  0  0  0  0
    2.1831   -4.0957   -6.7156 H   0  0  0  0  0  0  0  0  0  0  0  0
    2.6426   -3.2339  -11.6279 H   0  0  0  0  0  0  0  0  0  0  0  0
    3.8028   -4.2351  -10.7181 H   0  0  0  0  0  0  0  0  0  0  0  0
    2.8459   -5.5107  -12.6499 H   0  0  0  0  0  0  0  0  0  0  0  0
    2.3682   -6.2422  -11.1114 H   0  0  0  0  0  0  0  0  0  0  0  0
    1.2177   -5.2515  -12.0114 H   0  0  0  0  0  0  0  0  0  0  0  0
    5.1326   -0.4925   -8.3162 H   0  0  0  0  0  0  0  0  0  0  0  0
    8.8639    0.0386   -2.3571 H   0  0  0  0  0  0  0  0  0  0  0  0
   10.1650    1.3419   -0.7285 H   0  0  0  0  0  0  0  0  0  0  0  0
    8.2175    5.4861    1.0000 H   0  0  0  0  0  0  0  0  0  0  0  0
    9.4380    5.1992    2.2542 H   0  0  0  0  0  0  0  0  0  0  0  0
    7.2317    4.2770    2.9728 H   0  0  0  0  0  0  0  0  0  0  0  0
    7.1684    3.2651    1.5289 H   0  0  0  0  0  0  0  0  0  0  0  0
    8.4075    2.9733    2.7545 H   0  0  0  0  0  0  0  0  0  0  0  0
    6.0146    3.2299   -2.5743 H   0  0  0  0  0  0  0  0  0  0  0  0
    9.3189    0.9924   -4.5240 H   0  0  0  0  0  0  0  0  0  0  0  0
   10.0469   -1.4818   -8.5735 H   0  0  0  0  0  0  0  0  0  0  0  0
   11.4016   -3.5352   -8.8202 H   0  0  0  0  0  0  0  0  0  0  0  0
   10.3945   -4.9780  -10.5393 H   0  0  0  0  0  0  0  0  0  0  0  0
   10.6263   -3.4988  -15.2001 H   0  0  0  0  0  0  0  0  0  0  0  0
    9.2995   -4.6660  -15.3433 H   0  0  0  0  0  0  0  0  0  0  0  0
    9.2853   -2.1954  -13.5242 H   0  0  0  0  0  0  0  0  0  0  0  0
    8.3857   -2.3641  -15.0331 H   0  0  0  0  0  0  0  0  0  0  0  0
    7.9825   -3.3822  -13.6436 H   0  0  0  0  0  0  0  0  0  0  0  0
   13.0416   -1.0668  -11.9134 H   0  0  0  0  0  0  0  0  0  0  0  0
   13.8824   -0.0227   -4.5025 H   0  0  0  0  0  0  0  0  0  0  0  0
   14.5736    1.4997   -2.7392 H   0  0  0  0  0  0  0  0  0  0  0  0
   15.0664    4.5722   -0.7276 H   0  0  0  0  0  0  0  0  0  0  0  0
   14.8945    2.8532   -1.1051 H   0  0  0  0  0  0  0  0  0  0  0  0
   12.9646    3.4301   -2.6484 H   0  0  0  0  0  0  0  0  0  0  0  0
   12.6451    3.9756   -0.9986 H   0  0  0  0  0  0  0  0  0  0  0  0
   13.1679    5.1316   -2.2279 H   0  0  0  0  0  0  0  0  0  0  0  0
   15.5064    2.6316   -7.4461 H   0  0  0  0  0  0  0  0  0  0  0  0
   16.8794    0.5338   -7.7989 H   0  0  0  0  0  0  0  0  0  0  0  0
   17.6491   -0.7183   -9.9524 H   0  0  0  0  0  0  0  0  0  0  0  0
  1  2  1  0  0  0  0
  2  3  1  0  0  0  0
  3  4  2  0  0  0  0
  4  5  1  0  0  0  0
  5  6  1  0  0  0  0
  6  7  2  0  0  0  0
  7  8  1  0  0  0  0
  7  9  1  0  0  0  0
  9 10  1  0  0  0  0
 10 11  1  0  0  0  0
  9 12  2  0  0  0  0
  3 13  1  0  0  0  0
 13 14  2  0  0  0  0
 14 15  1  0  0  0  0
 15 16  2  0  0  0  0
 16 17  1  0  0  0  0
 17 18  2  0  0  0  0
 18 19  1  0  0  0  0
 19 20  2  0  0  0  0
 20 21  1  0  0  0  0
 21 22  1  0  0  0  0
 22 23  1  0  0  0  0
 20 24  1  0  0  0  0
 24 25  1  0  0  0  0
 24 26  2  0  0  0  0
 16 27  1  0  0  0  0
 27 28  2  0  0  0  0
 28 29  1  0  0  0  0
 29 30  1  0  0  0  0
 30 31  2  0  0  0  0
 31 32  1  0  0  0  0
 32 33  2  0  0  0  0
 33 34  1  0  0  0  0
 34 35  1  0  0  0  0
 35 36  1  0  0  0  0
 33 37  1  0  0  0  0
 37 38  2  0  0  0  0
 37 39  1  0  0  0  0
 29 40  2  0  0  0  0
 40 41  1  0  0  0  0
 28 42  1  0  0  0  0
 42 43  2  0  0  0  0
 43 44  1  0  0  0  0
 43 45  1  0  0  0  0
 45 46  1  0  0  0  0
 46 47  1  0  0  0  0
 47 48  2  0  0  0  0
 48 49  1  0  0  0  0
 49 50  1  0  0  0  0
 50 51  2  0  0  0  0
 51 52  1  0  0  0  0
 51 53  1  0  0  0  0
 53 54  1  0  0  0  0
 54 55  1  0  0  0  0
 53 56  2  0  0  0  0
 47 57  1  0  0  0  0
 57 58  2  0  0  0  0
 58 59  1  0  0  0  0
 59 60  2  0  0  0  0
 60 61  1  0  0  0  0
 61 62  2  0  0  0  0
 62 63  1  0  0  0  0
 63 64  2  0  0  0  0
 64 65  1  0  0  0  0
 65 66  1  0  0  0  0
 66 67  1  0  0  0  0
 64 68  1  0  0  0  0
 68 69  1  0  0  0  0
 68 70  2  0  0  0  0
 60 71  1  0  0  0  0
 71 72  2  0  0  0  0
 72 73  1  0  0  0  0
 73 74  1  0  0  0  0
 74 75  2  0  0  0  0
 75 76  1  0  0  0  0
 76 77  2  0  0  0  0
 77 78  1  0  0  0  0
 78 79  1  0  0  0  0
 79 80  1  0  0  0  0
 77 81  1  0  0  0  0
 81 82  2  0  0  0  0
 81 83  1  0  0  0  0
 73 84  2  0  0  0  0
 84 85  1  0  0  0  0
 72 86  1  0  0  0  0
 86 87  2  0  0  0  0
 87 88  1  0  0  0  0
 87 89  1  0  0  0  0
 89 90  2  0  0  0  0
 90 91  1  0  0  0  0
 91 92  2  0  0  0  0
 92 93  1  0  0  0  0
 93 94  2  0  0  0  0
 94 95  1  0  0  0  0
 95 96  2  0  0  0  0
 96 97  1  0  0  0  0
 97 98  1  0  0  0  0
 98 99  1  0  0  0  0
 96100  1  0  0  0  0
100101  1  0  0  0  0
100102  2  0  0  0  0
 92103  1  0  0  0  0
103104  2  0  0  0  0
104105  1  0  0  0  0
105106  1  0  0  0  0
106107  2  0  0  0  0
107108  1  0  0  0  0
108109  2  0  0  0  0
109110  1  0  0  0  0
110111  1  0  0  0  0
111112  1  0  0  0  0
109113  1  0  0  0  0
113114  2  0  0  0  0
113115  1  0  0  0  0
105116  2  0  0  0  0
116117  1  0  0  0  0
104118  1  0  0  0  0
118119  2  0  0  0  0
119120  1  0  0  0  0
119121  1  0  0  0  0
121122  2  0  0  0  0
122123  1  0  0  0  0
123124  2  0  0  0  0
124125  1  0  0  0  0
125126  2  0  0  0  0
126127  1  0  0  0  0
127128  2  0  0  0  0
128129  1  0  0  0  0
129130  1  0  0  0  0
130131  1  0  0  0  0
128132  1  0  0  0  0
132133  1  0  0  0  0
132134  2  0  0  0  0
124135  1  0  0  0  0
135136  2  0  0  0  0
136137  1  0  0  0  0
137138  1  0  0  0  0
138139  2  0  0  0  0
139140  1  0  0  0  0
140141  2  0  0  0  0
141142  1  0  0  0  0
142143  1  0  0  0  0
143144  1  0  0  0  0
141145  1  0  0  0  0
145146  2  0  0  0  0
145147  1  0  0  0  0
137148  2  0  0  0  0
148149  1  0  0  0  0
136150  1  0  0  0  0
150151  2  0  0  0  0
151152  1  0  0  0  0
  5  1  2  0  0  0  0
 41 13  1  0  0  0  0
 49 45  2  0  0  0  0
 85 57  1  0  0  0  0
117 89  1  0  0  0  0
149121  1  0  0  0  0
 12  4  1  0  0  0  0
 40 15  1  0  0  0  0
 56 48  1  0  0  0  0
 84 59  1  0  0  0  0
116 91  1  0  0  0  0
148123  1  0  0  0  0
 26 17  1  0  0  0  0
 44 27  1  0  0  0  0
 70 61  1  0  0  0  0
 88 71  1  0  0  0  0
102 93  1  0  0  0  0
120103  1  0  0  0  0
134125  1  0  0  0  0
152135  1  0  0  0  0
 38 30  1  0  0  0  0
 82 74  1  0  0  0  0
114106  1  0  0  0  0
146138  1  0  0  0  0
  1153  1  0  0  0  0
  6154  1  0  0  0  0
  8155  1  0  0  0  0
  8156  1  0  0  0  0
  8157  1  0  0  0  0
 11158  1  0  0  0  0
 11159  1  0  0  0  0
 11160  1  0  0  0  0
 12161  1  0  0  0  0
 14162  1  0  0  0  0
 18163  1  0  0  0  0
 19164  1  0  0  0  0
 22165  1  0  0  0  0
 22166  1  0  0  0  0
 23167  1  0  0  0  0
 23168  1  0  0  0  0
 23169  1  0  0  0  0
 26170  1  0  0  0  0
 31171  1  0  0  0  0
 32172  1  0  0  0  0
 35173  1  0  0  0  0
 35174  1  0  0  0  0
 36175  1  0  0  0  0
 36176  1  0  0  0  0
 36177  1  0  0  0  0
 38178  1  0  0  0  0
 42179  1  0  0  0  0
 50180  1  0  0  0  0
 52181  1  0  0  0  0
 52182  1  0  0  0  0
 52183  1  0  0  0  0
 55184  1  0  0  0  0
 55185  1  0  0  0  0
 55186  1  0  0  0  0
 56187  1  0  0  0  0
 58188  1  0  0  0  0
 62189  1  0  0  0  0
 63190  1  0  0  0  0
 66191  1  0  0  0  0
 66192  1  0  0  0  0
 67193  1  0  0  0  0
 67194  1  0  0  0  0
 67195  1  0  0  0  0
 70196  1  0  0  0  0
 75197  1  0  0  0  0
 76198  1  0  0  0  0
 79199  1  0  0  0  0
 79200  1  0  0  0  0
 80201  1  0  0  0  0
 80202  1  0  0  0  0
 80203  1  0  0  0  0
 82204  1  0  0  0  0
 86205  1  0  0  0  0
 90206  1  0  0  0  0
 94207  1  0  0  0  0
 95208  1  0  0  0  0
 98209  1  0  0  0  0
 98210  1  0  0  0  0
 99211  1  0  0  0  0
 99212  1  0  0  0  0
 99213  1  0  0  0  0
102214  1  0  0  0  0
107215  1  0  0  0  0
108216  1  0  0  0  0
111217  1  0  0  0  0
111218  1  0  0  0  0
112219  1  0  0  0  0
112220  1  0  0  0  0
112221  1  0  0  0  0
114222  1  0  0  0  0
118223  1  0  0  0  0
122224  1  0  0  0  0
126225  1  0  0  0  0
127226  1  0  0  0  0
130227  1  0  0  0  0
130228  1  0  0  0  0
131229  1  0  0  0  0
131230  1  0  0  0  0
131231  1  0  0  0  0
134232  1  0  0  0  0
139233  1  0  0  0  0
140234  1  0  0  0  0
143235  1  0  0  0  0
143236  1  0  0  0  0
144237  1  0  0  0  0
144238  1  0  0  0  0
144239  1  0  0  0  0
146240  1  0  0  0  0
150241  1  0  0  0  0
151242  1  0  0  0  0
M  END
