102

C          5.60950       -0.43560       -0.49270
C          5.99980       -0.65380        0.78080
F          6.90590       -1.54580        1.19170
C          5.29850        0.22720        1.69500
C          4.51230        1.02850        0.95000
C          4.63830        0.63530       -0.44960
C          3.94740        1.20570       -1.48320
C          3.86880        0.74440       -2.89160
C          3.40780        1.78890       -3.63760
C          3.11860        2.86980       -2.73970
C          3.36430        2.51890       -1.44990
F          2.68910        4.05580       -3.16070
C          4.18130       -0.55920       -3.39010
C          4.71630       -0.83470       -4.62080
F          4.98440        0.06020       -5.57880
C          5.03630       -2.22600       -4.74920
C          4.70870       -2.83270       -3.58060
C          4.09380       -1.85930       -2.70490
C          3.49160       -2.18810       -1.51740
C          2.54910       -1.39800       -0.68370
C          2.51970       -1.98550        0.55710
C          3.32210       -3.15960        0.49920
C          3.85180       -3.33810       -0.74460
F          3.49260       -3.97150        1.54170
C          1.68220       -0.34860       -1.07140
S          1.08890        0.68830        0.18550
C         -0.01370        1.50750       -0.85020
C          0.07560        0.98390       -2.15350
C          1.01410       -0.08180       -2.27540
C          1.11430       -0.76520       -3.50120
C          0.38820       -0.36730       -4.58770
C          0.50930       -1.05040       -5.91020
C         -0.52190        0.72760       -4.46970
O         -1.18140        1.04310       -5.61140
C         -2.02790        2.16790       -5.61200
C         -0.70330        1.36020       -3.26420
C         -0.75940        2.68650       -0.50210
C         -0.72590        3.79620       -1.31210
F          0.08130        3.96760       -2.36200
C         -1.65320        4.79900       -0.88740
C         -2.34900        4.27720        0.14610
C         -1.83090        2.95610        0.47560
C         -2.45190        2.22350        1.45770
C         -2.01630        1.10220        2.31510
C         -3.08020        0.71610        3.07660
C         -4.19220        1.55220        2.73170
C         -3.82900        2.48190        1.81780
F         -5.40110        1.42100        3.28350
C         -0.66670        0.70480        2.60100
C          0.38140        1.55340        2.82450
F          0.39410        2.86890        2.59660
C          1.49830        0.85590        3.41090
C          1.12730       -0.42880        3.59520
C         -0.22460       -0.61320        3.08150
C         -0.86640       -1.81780        3.07080
C         -2.11940       -2.23110        2.38760
C         -2.46720       -3.45060        2.86740
C         -1.45580       -3.85630        3.81880
C         -0.47370       -2.93330        3.90580
F         -1.52200       -5.00770        4.48300
C         -2.69560       -1.56570        1.23800
C         -2.00020       -1.27370        0.10790
F         -0.71540       -1.57610       -0.10470
C         -2.84570       -0.67520       -0.89780
C         -4.09050       -0.61580       -0.38640
C         -4.08360       -1.18120        0.95930
C         -5.18350       -1.29350        1.75340
C         -5.26160       -1.78490        3.13260
C         -6.53480       -1.69650        3.54840
C         -7.31800       -1.15320        2.44310
C         -6.53330       -0.90830        1.37760
F         -8.63000       -0.95210        2.53070
H          6.00120       -0.89450       -1.37700
H          5.42480        0.21420        2.76070
H          3.83800        1.78470        1.30070
H          3.23090        1.80980       -4.69490
H          3.27250        3.14470       -0.58530
H          5.46940       -2.67130       -5.62480
H          4.78390       -3.87950       -3.36220
H          1.92800       -1.67940        1.39760
H          4.53090       -4.11060       -1.04230
H          1.77150       -1.61570       -3.58140
H          0.86710       -0.34440       -6.65820
H         -0.46470       -1.40530       -6.24280
H          1.19900       -1.88770       -5.85080
H         -2.89830        2.01730       -4.96470
H         -1.49210        3.06880       -5.29830
H         -2.36260        2.28410       -6.64150
H         -1.43710        2.14060       -3.14680
H         -1.73580        5.77530       -1.32480
H         -3.08800        4.78600        0.73150
H         -3.08500       -0.02050        3.85550
H         -4.47380        3.19980        1.35470
H          2.43580        1.31580        3.65770
H          1.73910       -1.21900        3.98350
H         -3.29960       -4.05870        2.56830
H          0.38020       -2.96460        4.55070
H         -2.49990       -0.36270       -1.86490
H         -4.96290       -0.21920       -0.86570
H         -4.42080       -2.13240        3.69740
H         -6.94530       -1.95420        4.50570
H         -6.83330       -0.50950        0.43060
