
  xtb     03042212013D
 energy: -178.576525229469 gnorm: 0.000566147584 xtb: 6.4.1 (unknown)
 94101  0     0  0            999 V2000
    5.8349    2.4736   -2.7771 C   0  0  0  0  0  0  0  0  0  0  0  0
    4.7317    3.1445   -3.1215 O   0  0  0  0  0  0  0  0  0  0  0  0
    3.9086    3.2029   -2.0478 C   0  0  0  0  0  0  0  0  0  0  0  0
    4.5224    2.5757   -0.9713 C   0  0  0  0  0  0  0  0  0  0  0  0
    5.7807    2.0915   -1.4642 C   0  0  0  0  0  0  0  0  0  0  0  0
    6.7320    1.3658   -0.7312 C   0  0  0  0  0  0  0  0  0  0  0  0
    7.4869    0.7590   -0.1193 N   0  0  0  0  0  0  0  0  0  0  0  0
    4.0934    2.4966    0.3575 C   0  0  0  0  0  0  0  0  0  0  0  0
    3.7784    2.4308    1.4592 N   0  0  0  0  0  0  0  0  0  0  0  0
    2.7034    3.9670   -2.1679 C   0  0  0  0  0  0  0  0  0  0  0  0
    1.5272    3.7974   -1.5186 C   0  0  0  0  0  0  0  0  0  0  0  0
    1.0664    2.7035   -0.7450 C   0  0  0  0  0  0  0  0  0  0  0  0
    1.7607    1.1170   -0.8116 S   0  0  0  0  0  0  0  0  0  0  0  0
    0.5478    0.4322    0.2237 C   0  0  0  0  0  0  0  0  0  0  0  0
   -0.3877    1.4080    0.5961 C   0  0  0  0  0  0  0  0  0  0  0  0
   -0.0803    2.6946    0.0629 C   0  0  0  0  0  0  0  0  0  0  0  0
   -0.8830    3.7955    0.4251 C   0  0  0  0  0  0  0  0  0  0  0  0
   -1.9473    3.6398    1.2654 C   0  0  0  0  0  0  0  0  0  0  0  0
   -2.7949    4.7883    1.6950 C   0  0  0  0  0  0  0  0  0  0  0  0
   -2.2672    2.3377    1.7734 C   0  0  0  0  0  0  0  0  0  0  0  0
   -3.3476    2.3030    2.5785 O   0  0  0  0  0  0  0  0  0  0  0  0
   -3.7812    1.0614    3.0883 C   0  0  0  0  0  0  0  0  0  0  0  0
   -1.4954    1.2489    1.4499 C   0  0  0  0  0  0  0  0  0  0  0  0
    0.5915   -0.9438    0.5566 C   0  0  0  0  0  0  0  0  0  0  0  0
   -0.8639   -1.8738    0.6836 S   0  0  0  0  0  0  0  0  0  0  0  0
    0.0113   -3.3500    0.9959 C   0  0  0  0  0  0  0  0  0  0  0  0
    1.3928   -3.1180    1.0243 C   0  0  0  0  0  0  0  0  0  0  0  0
    1.7187   -1.7505    0.7716 C   0  0  0  0  0  0  0  0  0  0  0  0
    3.0687   -1.3461    0.8352 C   0  0  0  0  0  0  0  0  0  0  0  0
    4.0592   -2.2484    1.0925 C   0  0  0  0  0  0  0  0  0  0  0  0
    5.4915   -1.8462    1.2016 C   0  0  0  0  0  0  0  0  0  0  0  0
    3.7279   -3.6308    1.2713 C   0  0  0  0  0  0  0  0  0  0  0  0
    4.7811   -4.4410    1.4952 O   0  0  0  0  0  0  0  0  0  0  0  0
    4.5521   -5.8143    1.7256 C   0  0  0  0  0  0  0  0  0  0  0  0
    2.4199   -4.0516    1.2319 C   0  0  0  0  0  0  0  0  0  0  0  0
   -0.7753   -4.5215    1.0721 C   0  0  0  0  0  0  0  0  0  0  0  0
   -2.0150   -4.4127    0.5462 O   0  0  0  0  0  0  0  0  0  0  0  0
   -2.6537   -5.5965    0.6365 C   0  0  0  0  0  0  0  0  0  0  0  0
   -1.8242   -6.5056    1.2865 C   0  0  0  0  0  0  0  0  0  0  0  0
   -0.6027   -5.8206    1.5637 C   0  0  0  0  0  0  0  0  0  0  0  0
    0.4722   -6.3899    2.2507 C   0  0  0  0  0  0  0  0  0  0  0  0
    1.3248   -6.9006    2.8268 N   0  0  0  0  0  0  0  0  0  0  0  0
   -2.1212   -7.8409    1.5881 C   0  0  0  0  0  0  0  0  0  0  0  0
   -2.3704   -8.9337    1.8290 N   0  0  0  0  0  0  0  0  0  0  0  0
   -3.9632   -5.7955    0.1170 C   0  0  0  0  0  0  0  0  0  0  0  0
   -4.6461   -4.9977   -0.7424 C   0  0  0  0  0  0  0  0  0  0  0  0
   -4.1718   -3.8513   -1.4450 C   0  0  0  0  0  0  0  0  0  0  0  0
   -2.8656   -3.5513   -1.5594 O   0  0  0  0  0  0  0  0  0  0  0  0
   -2.7287   -2.3996   -2.2415 C   0  0  0  0  0  0  0  0  0  0  0  0
   -3.9833   -1.9526   -2.6442 C   0  0  0  0  0  0  0  0  0  0  0  0
   -4.9197   -2.8995   -2.1383 C   0  0  0  0  0  0  0  0  0  0  0  0
   -6.3103   -2.8783   -2.3006 C   0  0  0  0  0  0  0  0  0  0  0  0
   -7.4477   -2.8794   -2.4439 N   0  0  0  0  0  0  0  0  0  0  0  0
   -4.2683   -0.8226   -3.4195 C   0  0  0  0  0  0  0  0  0  0  0  0
   -4.4860    0.1083   -4.0532 N   0  0  0  0  0  0  0  0  0  0  0  0
   -1.3965   -1.9406   -2.5004 C   0  0  0  0  0  0  0  0  0  0  0  0
   -0.9615   -0.6762   -2.6705 C   0  0  0  0  0  0  0  0  0  0  0  0
   -1.6659    0.5442   -2.4286 C   0  0  0  0  0  0  0  0  0  0  0  0
   -1.1978    1.6613   -3.0216 O   0  0  0  0  0  0  0  0  0  0  0  0
   -1.9373    2.7151   -2.6300 C   0  0  0  0  0  0  0  0  0  0  0  0
   -2.9089    2.2908   -1.7367 C   0  0  0  0  0  0  0  0  0  0  0  0
   -2.7253    0.8823   -1.5943 C   0  0  0  0  0  0  0  0  0  0  0  0
   -3.4397    0.0794   -0.7009 C   0  0  0  0  0  0  0  0  0  0  0  0
   -4.0312   -0.5431    0.0608 N   0  0  0  0  0  0  0  0  0  0  0  0
   -3.9075    3.0385   -1.1017 C   0  0  0  0  0  0  0  0  0  0  0  0
   -4.7440    3.6225   -0.5780 N   0  0  0  0  0  0  0  0  0  0  0  0
   -1.6114    4.0121   -3.1551 C   0  0  0  0  0  0  0  0  0  0  0  0
   -2.2076    5.1464   -2.7952 C   0  0  0  0  0  0  0  0  0  0  0  0
    6.5898    2.3227   -3.5233 H   0  0  0  0  0  0  0  0  0  0  0  0
    2.7838    4.7868   -2.8691 H   0  0  0  0  0  0  0  0  0  0  0  0
    0.7904    4.5808   -1.6473 H   0  0  0  0  0  0  0  0  0  0  0  0
   -0.6378    4.7777    0.0511 H   0  0  0  0  0  0  0  0  0  0  0  0
   -3.8174    4.6383    1.3492 H   0  0  0  0  0  0  0  0  0  0  0  0
   -2.8254    4.8404    2.7814 H   0  0  0  0  0  0  0  0  0  0  0  0
   -2.4134    5.7243    1.2968 H   0  0  0  0  0  0  0  0  0  0  0  0
   -3.0300    0.6195    3.7505 H   0  0  0  0  0  0  0  0  0  0  0  0
   -4.6822    1.2803    3.6580 H   0  0  0  0  0  0  0  0  0  0  0  0
   -4.0204    0.3616    2.2824 H   0  0  0  0  0  0  0  0  0  0  0  0
   -1.7119    0.2736    1.8511 H   0  0  0  0  0  0  0  0  0  0  0  0
    3.3185   -0.3035    0.7157 H   0  0  0  0  0  0  0  0  0  0  0  0
    6.0747   -2.3116    0.4084 H   0  0  0  0  0  0  0  0  0  0  0  0
    5.6044   -0.7682    1.1376 H   0  0  0  0  0  0  0  0  0  0  0  0
    5.9030   -2.1945    2.1466 H   0  0  0  0  0  0  0  0  0  0  0  0
    4.1345   -6.3019    0.8396 H   0  0  0  0  0  0  0  0  0  0  0  0
    5.5293   -6.2402    1.9452 H   0  0  0  0  0  0  0  0  0  0  0  0
    3.8817   -5.9784    2.5737 H   0  0  0  0  0  0  0  0  0  0  0  0
    2.1654   -5.0845    1.3792 H   0  0  0  0  0  0  0  0  0  0  0  0
   -4.4475   -6.6940    0.4739 H   0  0  0  0  0  0  0  0  0  0  0  0
   -5.6781   -5.2412   -0.9536 H   0  0  0  0  0  0  0  0  0  0  0  0
   -0.6693   -2.7401   -2.5632 H   0  0  0  0  0  0  0  0  0  0  0  0
    0.0579   -0.5258   -3.0007 H   0  0  0  0  0  0  0  0  0  0  0  0
   -0.8141    4.0023   -3.8861 H   0  0  0  0  0  0  0  0  0  0  0  0
   -3.0007    5.1683   -2.0681 H   0  0  0  0  0  0  0  0  0  0  0  0
   -1.9174    6.0871   -3.2289 H   0  0  0  0  0  0  0  0  0  0  0  0
  1  2  1  0  0  0  0
  2  3  1  0  0  0  0
  3  4  2  0  0  0  0
  4  5  1  0  0  0  0
  5  6  1  0  0  0  0
  6  7  3  0  0  0  0
  4  8  1  0  0  0  0
  8  9  3  0  0  0  0
  3 10  1  0  0  0  0
 10 11  2  0  0  0  0
 11 12  1  0  0  0  0
 12 13  1  0  0  0  0
 13 14  1  0  0  0  0
 14 15  2  0  0  0  0
 15 16  1  0  0  0  0
 16 17  1  0  0  0  0
 17 18  2  0  0  0  0
 18 19  1  0  0  0  0
 18 20  1  0  0  0  0
 20 21  1  0  0  0  0
 21 22  1  0  0  0  0
 20 23  2  0  0  0  0
 14 24  1  0  0  0  0
 24 25  1  0  0  0  0
 25 26  1  0  0  0  0
 26 27  2  0  0  0  0
 27 28  1  0  0  0  0
 28 29  1  0  0  0  0
 29 30  2  0  0  0  0
 30 31  1  0  0  0  0
 30 32  1  0  0  0  0
 32 33  1  0  0  0  0
 33 34  1  0  0  0  0
 32 35  2  0  0  0  0
 26 36  1  0  0  0  0
 36 37  1  0  0  0  0
 37 38  1  0  0  0  0
 38 39  2  0  0  0  0
 39 40  1  0  0  0  0
 40 41  1  0  0  0  0
 41 42  3  0  0  0  0
 39 43  1  0  0  0  0
 43 44  3  0  0  0  0
 38 45  1  0  0  0  0
 45 46  2  0  0  0  0
 46 47  1  0  0  0  0
 47 48  1  0  0  0  0
 48 49  1  0  0  0  0
 49 50  2  0  0  0  0
 50 51  1  0  0  0  0
 51 52  1  0  0  0  0
 52 53  3  0  0  0  0
 50 54  1  0  0  0  0
 54 55  3  0  0  0  0
 49 56  1  0  0  0  0
 56 57  2  0  0  0  0
 57 58  1  0  0  0  0
 58 59  1  0  0  0  0
 59 60  1  0  0  0  0
 60 61  2  0  0  0  0
 61 62  1  0  0  0  0
 62 63  1  0  0  0  0
 63 64  3  0  0  0  0
 61 65  1  0  0  0  0
 65 66  3  0  0  0  0
 60 67  1  0  0  0  0
 67 68  2  0  0  0  0
  5  1  2  0  0  0  0
 16 12  2  0  0  0  0
 28 24  2  0  0  0  0
 40 36  2  0  0  0  0
 51 47  2  0  0  0  0
 62 58  2  0  0  0  0
 23 15  1  0  0  0  0
 35 27  1  0  0  0  0
  1 69  1  0  0  0  0
 10 70  1  0  0  0  0
 11 71  1  0  0  0  0
 17 72  1  0  0  0  0
 19 73  1  0  0  0  0
 19 74  1  0  0  0  0
 19 75  1  0  0  0  0
 22 76  1  0  0  0  0
 22 77  1  0  0  0  0
 22 78  1  0  0  0  0
 23 79  1  0  0  0  0
 29 80  1  0  0  0  0
 31 81  1  0  0  0  0
 31 82  1  0  0  0  0
 31 83  1  0  0  0  0
 34 84  1  0  0  0  0
 34 85  1  0  0  0  0
 34 86  1  0  0  0  0
 35 87  1  0  0  0  0
 45 88  1  0  0  0  0
 46 89  1  0  0  0  0
 56 90  1  0  0  0  0
 57 91  1  0  0  0  0
 67 92  1  0  0  0  0
 68 93  1  0  0  0  0
 68 94  1  0  0  0  0
M  END
