
  xtb     03032209573D
 energy: -352.967672417978 gnorm: 0.000417097012 xtb: 6.4.1 (unknown)
188208  0     0  0            999 V2000
    8.6334  -10.9281   10.8905 C   0  0  0  0  0  0  0  0  0  0  0  0
    8.9446   -9.6172   10.8251 C   0  0  0  0  0  0  0  0  0  0  0  0
    8.0149   -8.8664   10.0493 C   0  0  0  0  0  0  0  0  0  0  0  0
    8.0362   -7.4949    9.7468 C   0  0  0  0  0  0  0  0  0  0  0  0
    9.1006   -6.6230   10.2197 C   0  0  0  0  0  0  0  0  0  0  0  0
   10.7710   -6.9791    9.8908 S   0  0  0  0  0  0  0  0  0  0  0  0
   11.3176   -5.5406   10.6829 C   0  0  0  0  0  0  0  0  0  0  0  0
   12.7622   -5.1826   10.7223 C   0  0  0  0  0  0  0  0  0  0  0  0
   13.1776   -4.4469    9.4461 C   0  0  0  0  0  0  0  0  0  0  0  0
   10.2560   -4.8340   11.1624 C   0  0  0  0  0  0  0  0  0  0  0  0
   10.3998   -3.3487   12.0096 Cl  0  0  0  0  0  0  0  0  0  0  0  0
    8.9988   -5.4449   10.9052 C   0  0  0  0  0  0  0  0  0  0  0  0
    7.5250   -4.7880   11.4832 Cl  0  0  0  0  0  0  0  0  0  0  0  0
    7.0124   -7.0101    8.9457 C   0  0  0  0  0  0  0  0  0  0  0  0
    5.9701   -7.8264    8.4409 C   0  0  0  0  0  0  0  0  0  0  0  0
    5.9375   -9.1946    8.7617 C   0  0  0  0  0  0  0  0  0  0  0  0
    4.8921  -10.0677    8.2544 C   0  0  0  0  0  0  0  0  0  0  0  0
    4.5743  -10.1944    6.5486 S   0  0  0  0  0  0  0  0  0  0  0  0
    3.3365  -11.3816    6.7864 C   0  0  0  0  0  0  0  0  0  0  0  0
    2.5686  -11.9308    5.6352 C   0  0  0  0  0  0  0  0  0  0  0  0
    1.5458  -10.9142    5.1244 C   0  0  0  0  0  0  0  0  0  0  0  0
    3.1811  -11.6417    8.1145 C   0  0  0  0  0  0  0  0  0  0  0  0
    4.0649  -10.9048    8.9491 C   0  0  0  0  0  0  0  0  0  0  0  0
    4.0162  -11.0118   10.6588 Cl  0  0  0  0  0  0  0  0  0  0  0  0
    2.0387  -12.7552    8.7470 Cl  0  0  0  0  0  0  0  0  0  0  0  0
    6.9677   -9.6814    9.5579 C   0  0  0  0  0  0  0  0  0  0  0  0
    7.1907  -11.3414   10.0326 S   0  0  0  0  0  0  0  0  0  0  0  0
    5.0641   -7.0922    7.6457 C   0  0  0  0  0  0  0  0  0  0  0  0
    5.3854   -5.7656    7.5055 C   0  0  0  0  0  0  0  0  0  0  0  0
    6.8535   -5.3721    8.3831 S   0  0  0  0  0  0  0  0  0  0  0  0
    4.6583   -4.8147    6.7484 C   0  0  0  0  0  0  0  0  0  0  0  0
    3.3202   -5.3799    5.8004 S   0  0  0  0  0  0  0  0  0  0  0  0
    2.9487   -3.8003    5.1692 C   0  0  0  0  0  0  0  0  0  0  0  0
    3.8484   -2.8560    5.7101 C   0  0  0  0  0  0  0  0  0  0  0  0
    4.8090   -3.4319    6.5966 C   0  0  0  0  0  0  0  0  0  0  0  0
    5.7657   -2.5991    7.2127 C   0  0  0  0  0  0  0  0  0  0  0  0
    5.7985   -1.2582    6.9658 C   0  0  0  0  0  0  0  0  0  0  0  0
    6.8040   -0.3577    7.6054 C   0  0  0  0  0  0  0  0  0  0  0  0
    4.8383   -0.6869    6.0774 C   0  0  0  0  0  0  0  0  0  0  0  0
    4.9562    0.6522    5.8944 O   0  0  0  0  0  0  0  0  0  0  0  0
    4.0879    1.2913    4.9896 C   0  0  0  0  0  0  0  0  0  0  0  0
    3.8820   -1.4691    5.4796 C   0  0  0  0  0  0  0  0  0  0  0  0
    1.9277   -3.6292    4.2122 C   0  0  0  0  0  0  0  0  0  0  0  0
    1.7687   -2.1320    3.3391 S   0  0  0  0  0  0  0  0  0  0  0  0
    0.4851   -2.7196    2.3312 C   0  0  0  0  0  0  0  0  0  0  0  0
    0.1699   -4.0394    2.6717 C   0  0  0  0  0  0  0  0  0  0  0  0
    0.9647   -4.5488    3.7429 C   0  0  0  0  0  0  0  0  0  0  0  0
    0.6854   -5.8459    4.2165 C   0  0  0  0  0  0  0  0  0  0  0  0
   -0.2904   -6.6164    3.6503 C   0  0  0  0  0  0  0  0  0  0  0  0
   -0.6015   -7.9883    4.1539 C   0  0  0  0  0  0  0  0  0  0  0  0
   -1.0497   -6.1080    2.5545 C   0  0  0  0  0  0  0  0  0  0  0  0
   -1.9826   -6.9610    2.0563 O   0  0  0  0  0  0  0  0  0  0  0  0
   -2.7712   -6.5305    0.9733 C   0  0  0  0  0  0  0  0  0  0  0  0
   -0.8300   -4.8390    2.0879 C   0  0  0  0  0  0  0  0  0  0  0  0
   -0.0499   -1.8460    1.3571 C   0  0  0  0  0  0  0  0  0  0  0  0
    0.1570   -0.4912    1.2911 C   0  0  0  0  0  0  0  0  0  0  0  0
   -0.4574    0.1364    0.1875 C   0  0  0  0  0  0  0  0  0  0  0  0
   -0.4334    1.5001   -0.1670 C   0  0  0  0  0  0  0  0  0  0  0  0
    0.3526    2.4565    0.5912 C   0  0  0  0  0  0  0  0  0  0  0  0
   -0.3524    3.9377    1.1708 S   0  0  0  0  0  0  0  0  0  0  0  0
    1.1229    4.4403    1.9225 C   0  0  0  0  0  0  0  0  0  0  0  0
    1.2247    5.7560    2.6114 C   0  0  0  0  0  0  0  0  0  0  0  0
    1.3722    6.8922    1.5968 C   0  0  0  0  0  0  0  0  0  0  0  0
    2.0972    3.5101    1.7181 C   0  0  0  0  0  0  0  0  0  0  0  0
    3.7046    3.6633    2.3011 Cl  0  0  0  0  0  0  0  0  0  0  0  0
    1.6656    2.3829    0.9693 C   0  0  0  0  0  0  0  0  0  0  0  0
    2.7387    1.1169    0.5255 Cl  0  0  0  0  0  0  0  0  0  0  0  0
   -1.2040    1.8801   -1.2589 C   0  0  0  0  0  0  0  0  0  0  0  0
   -1.9471    0.9548   -2.0305 C   0  0  0  0  0  0  0  0  0  0  0  0
   -1.9179   -0.4176   -1.7198 C   0  0  0  0  0  0  0  0  0  0  0  0
   -2.6272   -1.3825   -2.5413 C   0  0  0  0  0  0  0  0  0  0  0  0
   -3.6950   -2.5590   -1.8332 S   0  0  0  0  0  0  0  0  0  0  0  0
   -4.1201   -3.2215   -3.3760 C   0  0  0  0  0  0  0  0  0  0  0  0
   -5.0484   -4.3805   -3.4811 C   0  0  0  0  0  0  0  0  0  0  0  0
   -4.3902   -5.6600   -2.9615 C   0  0  0  0  0  0  0  0  0  0  0  0
   -3.4557   -2.5679   -4.3697 C   0  0  0  0  0  0  0  0  0  0  0  0
   -2.6106   -1.5252   -3.9018 C   0  0  0  0  0  0  0  0  0  0  0  0
   -1.6107   -0.6196   -4.9647 Cl  0  0  0  0  0  0  0  0  0  0  0  0
   -3.6142   -2.9362   -6.0382 Cl  0  0  0  0  0  0  0  0  0  0  0  0
   -1.1914   -0.7855   -0.6001 C   0  0  0  0  0  0  0  0  0  0  0  0
   -1.0503   -2.4027    0.0240 S   0  0  0  0  0  0  0  0  0  0  0  0
   -2.6759    1.5891   -3.0601 C   0  0  0  0  0  0  0  0  0  0  0  0
   -2.4713    2.9364   -3.1262 C   0  0  0  0  0  0  0  0  0  0  0  0
   -1.3843    3.5010   -1.8765 S   0  0  0  0  0  0  0  0  0  0  0  0
   -3.0625    3.7948   -4.1018 C   0  0  0  0  0  0  0  0  0  0  0  0
   -3.5565    3.3759   -5.3025 C   0  0  0  0  0  0  0  0  0  0  0  0
   -4.1764    4.4026   -6.0493 C   0  0  0  0  0  0  0  0  0  0  0  0
   -4.8320    4.2889   -7.2887 C   0  0  0  0  0  0  0  0  0  0  0  0
   -4.9897    2.9930   -7.9260 C   0  0  0  0  0  0  0  0  0  0  0  0
   -4.5243    2.7379   -9.5815 S   0  0  0  0  0  0  0  0  0  0  0  0
   -4.9510    1.0606   -9.5269 C   0  0  0  0  0  0  0  0  0  0  0  0
   -4.8217    0.1985  -10.7336 C   0  0  0  0  0  0  0  0  0  0  0  0
   -5.9301    0.5025  -11.7435 C   0  0  0  0  0  0  0  0  0  0  0  0
   -5.4387    0.7364   -8.2966 C   0  0  0  0  0  0  0  0  0  0  0  0
   -5.9670   -0.8354   -7.8541 Cl  0  0  0  0  0  0  0  0  0  0  0  0
   -5.4601    1.8271   -7.3862 C   0  0  0  0  0  0  0  0  0  0  0  0
   -6.1053    1.6780   -5.8012 Cl  0  0  0  0  0  0  0  0  0  0  0  0
   -5.3083    5.4620   -7.8522 C   0  0  0  0  0  0  0  0  0  0  0  0
   -5.2005    6.7240   -7.2178 C   0  0  0  0  0  0  0  0  0  0  0  0
   -4.6083    6.8226   -5.9446 C   0  0  0  0  0  0  0  0  0  0  0  0
   -4.5656    8.0864   -5.2306 C   0  0  0  0  0  0  0  0  0  0  0  0
   -3.0842    8.7003   -4.5595 S   0  0  0  0  0  0  0  0  0  0  0  0
   -3.8634   10.1103   -3.9281 C   0  0  0  0  0  0  0  0  0  0  0  0
   -3.1073   11.1116   -3.1269 C   0  0  0  0  0  0  0  0  0  0  0  0
   -2.9499   10.6402   -1.6793 C   0  0  0  0  0  0  0  0  0  0  0  0
   -5.1948   10.0864   -4.2181 C   0  0  0  0  0  0  0  0  0  0  0  0
   -5.5965    8.9439   -4.9607 C   0  0  0  0  0  0  0  0  0  0  0  0
   -7.2337    8.6514   -5.3856 Cl  0  0  0  0  0  0  0  0  0  0  0  0
   -6.3005   11.3104   -3.7448 Cl  0  0  0  0  0  0  0  0  0  0  0  0
   -4.0872    5.6566   -5.3993 C   0  0  0  0  0  0  0  0  0  0  0  0
   -3.2906    5.5122   -3.8553 S   0  0  0  0  0  0  0  0  0  0  0  0
   -5.7331    7.7599   -8.0177 C   0  0  0  0  0  0  0  0  0  0  0  0
   -6.2737    7.3342   -9.2012 C   0  0  0  0  0  0  0  0  0  0  0  0
   -6.1241    5.5944   -9.3830 S   0  0  0  0  0  0  0  0  0  0  0  0
   -6.8966    8.1562  -10.1788 C   0  0  0  0  0  0  0  0  0  0  0  0
   -7.0701    9.8533   -9.8408 S   0  0  0  0  0  0  0  0  0  0  0  0
   -7.8468   10.1505  -11.3287 C   0  0  0  0  0  0  0  0  0  0  0  0
   -7.9844    9.0062  -12.0816 C   0  0  0  0  0  0  0  0  0  0  0  0
   -7.4399    7.8517  -11.4281 C   0  0  0  0  0  0  0  0  0  0  0  0
   -7.5105    6.6084  -12.0939 C   0  0  0  0  0  0  0  0  0  0  0  0
   -8.0872    6.5058  -13.3242 C   0  0  0  0  0  0  0  0  0  0  0  0
   -8.1733    5.2002  -14.0461 C   0  0  0  0  0  0  0  0  0  0  0  0
   -8.6331    7.6675  -13.9660 C   0  0  0  0  0  0  0  0  0  0  0  0
   -9.1804    7.4245  -15.1889 O   0  0  0  0  0  0  0  0  0  0  0  0
   -9.7434    8.5012  -15.8948 C   0  0  0  0  0  0  0  0  0  0  0  0
   -8.5813    8.8899  -13.3599 C   0  0  0  0  0  0  0  0  0  0  0  0
    9.1637  -11.7062   11.4038 H   0  0  0  0  0  0  0  0  0  0  0  0
    9.8023   -9.1845   11.3062 H   0  0  0  0  0  0  0  0  0  0  0  0
   12.9410   -4.5425   11.5883 H   0  0  0  0  0  0  0  0  0  0  0  0
   13.3581   -6.0908   10.8281 H   0  0  0  0  0  0  0  0  0  0  0  0
   14.2344   -4.1972    9.4862 H   0  0  0  0  0  0  0  0  0  0  0  0
   12.6057   -3.5288    9.3378 H   0  0  0  0  0  0  0  0  0  0  0  0
   12.9987   -5.0729    8.5750 H   0  0  0  0  0  0  0  0  0  0  0  0
    3.2575  -12.1868    4.8277 H   0  0  0  0  0  0  0  0  0  0  0  0
    2.0578  -12.8386    5.9598 H   0  0  0  0  0  0  0  0  0  0  0  0
    0.8425  -10.6604    5.9137 H   0  0  0  0  0  0  0  0  0  0  0  0
    0.9922  -11.3289    4.2865 H   0  0  0  0  0  0  0  0  0  0  0  0
    2.0492  -10.0074    4.7972 H   0  0  0  0  0  0  0  0  0  0  0  0
    4.1912   -7.5216    7.1883 H   0  0  0  0  0  0  0  0  0  0  0  0
    6.4824   -3.0280    7.8939 H   0  0  0  0  0  0  0  0  0  0  0  0
    7.4779   -0.9222    8.2435 H   0  0  0  0  0  0  0  0  0  0  0  0
    6.2983    0.4023    8.1991 H   0  0  0  0  0  0  0  0  0  0  0  0
    7.3794    0.1609    6.8404 H   0  0  0  0  0  0  0  0  0  0  0  0
    4.4005    2.3338    4.9684 H   0  0  0  0  0  0  0  0  0  0  0  0
    3.0459    1.2334    5.3207 H   0  0  0  0  0  0  0  0  0  0  0  0
    4.1715    0.8671    3.9844 H   0  0  0  0  0  0  0  0  0  0  0  0
    3.1452   -1.0196    4.8406 H   0  0  0  0  0  0  0  0  0  0  0  0
    1.2314   -6.2410    5.0565 H   0  0  0  0  0  0  0  0  0  0  0  0
   -1.6596   -8.0649    4.3977 H   0  0  0  0  0  0  0  0  0  0  0  0
   -0.3943   -8.7256    3.3799 H   0  0  0  0  0  0  0  0  0  0  0  0
   -0.0101   -8.2197    5.0347 H   0  0  0  0  0  0  0  0  0  0  0  0
   -2.1557   -6.2891    0.1008 H   0  0  0  0  0  0  0  0  0  0  0  0
   -3.4259   -7.3674    0.7352 H   0  0  0  0  0  0  0  0  0  0  0  0
   -3.3773   -5.6583    1.2386 H   0  0  0  0  0  0  0  0  0  0  0  0
   -1.4177   -4.4300    1.2851 H   0  0  0  0  0  0  0  0  0  0  0  0
    0.7145    0.0360    2.0434 H   0  0  0  0  0  0  0  0  0  0  0  0
    0.3278    5.9218    3.2115 H   0  0  0  0  0  0  0  0  0  0  0  0
    2.0914    5.7381    3.2745 H   0  0  0  0  0  0  0  0  0  0  0  0
    2.2716    6.7524    1.0022 H   0  0  0  0  0  0  0  0  0  0  0  0
    0.5142    6.9133    0.9290 H   0  0  0  0  0  0  0  0  0  0  0  0
    1.4396    7.8466    2.1119 H   0  0  0  0  0  0  0  0  0  0  0  0
   -5.3298   -4.5054   -4.5278 H   0  0  0  0  0  0  0  0  0  0  0  0
   -5.9509   -4.1783   -2.9001 H   0  0  0  0  0  0  0  0  0  0  0  0
   -3.4938   -5.8826   -3.5351 H   0  0  0  0  0  0  0  0  0  0  0  0
   -4.1141   -5.5428   -1.9158 H   0  0  0  0  0  0  0  0  0  0  0  0
   -5.0774   -6.4969   -3.0506 H   0  0  0  0  0  0  0  0  0  0  0  0
   -3.3628    1.0738   -3.7040 H   0  0  0  0  0  0  0  0  0  0  0  0
   -3.4494    2.3680   -5.6556 H   0  0  0  0  0  0  0  0  0  0  0  0
   -4.8787   -0.8463  -10.4236 H   0  0  0  0  0  0  0  0  0  0  0  0
   -3.8503    0.3713  -11.2013 H   0  0  0  0  0  0  0  0  0  0  0  0
   -5.8787    1.5436  -12.0539 H   0  0  0  0  0  0  0  0  0  0  0  0
   -6.9056    0.3197  -11.2998 H   0  0  0  0  0  0  0  0  0  0  0  0
   -5.8215   -0.1303  -12.6202 H   0  0  0  0  0  0  0  0  0  0  0  0
   -2.1205   11.2601   -3.5689 H   0  0  0  0  0  0  0  0  0  0  0  0
   -3.6481   12.0593   -3.1490 H   0  0  0  0  0  0  0  0  0  0  0  0
   -3.9256   10.5050   -1.2194 H   0  0  0  0  0  0  0  0  0  0  0  0
   -2.3924   11.3752   -1.1051 H   0  0  0  0  0  0  0  0  0  0  0  0
   -2.4172    9.6927   -1.6484 H   0  0  0  0  0  0  0  0  0  0  0  0
   -5.7067    8.7977   -7.7391 H   0  0  0  0  0  0  0  0  0  0  0  0
   -8.1628   11.1446  -11.5744 H   0  0  0  0  0  0  0  0  0  0  0  0
   -7.1015    5.7275  -11.6257 H   0  0  0  0  0  0  0  0  0  0  0  0
   -9.2133    4.9621  -14.2633 H   0  0  0  0  0  0  0  0  0  0  0  0
   -7.7376    4.4015  -13.4525 H   0  0  0  0  0  0  0  0  0  0  0  0
   -7.6520    5.2660  -14.9999 H   0  0  0  0  0  0  0  0  0  0  0  0
   -8.9963    9.2700  -16.1175 H   0  0  0  0  0  0  0  0  0  0  0  0
  -10.1170    8.0808  -16.8273 H   0  0  0  0  0  0  0  0  0  0  0  0
  -10.5740    8.9530  -15.3426 H   0  0  0  0  0  0  0  0  0  0  0  0
   -8.9803    9.7805  -13.8177 H   0  0  0  0  0  0  0  0  0  0  0  0
  1  2  2  0  0  0  0
  2  3  1  0  0  0  0
  3  4  2  0  0  0  0
  4  5  1  0  0  0  0
  5  6  1  0  0  0  0
  6  7  1  0  0  0  0
  7  8  1  0  0  0  0
  8  9  1  0  0  0  0
  7 10  2  0  0  0  0
 10 11  1  0  0  0  0
 10 12  1  0  0  0  0
 12 13  1  0  0  0  0
  4 14  1  0  0  0  0
 14 15  2  0  0  0  0
 15 16  1  0  0  0  0
 16 17  1  0  0  0  0
 17 18  1  0  0  0  0
 18 19  1  0  0  0  0
 19 20  1  0  0  0  0
 20 21  1  0  0  0  0
 19 22  2  0  0  0  0
 22 23  1  0  0  0  0
 23 24  1  0  0  0  0
 22 25  1  0  0  0  0
 16 26  2  0  0  0  0
 26 27  1  0  0  0  0
 15 28  1  0  0  0  0
 28 29  2  0  0  0  0
 29 30  1  0  0  0  0
 29 31  1  0  0  0  0
 31 32  1  0  0  0  0
 32 33  1  0  0  0  0
 33 34  2  0  0  0  0
 34 35  1  0  0  0  0
 35 36  1  0  0  0  0
 36 37  2  0  0  0  0
 37 38  1  0  0  0  0
 37 39  1  0  0  0  0
 39 40  1  0  0  0  0
 40 41  1  0  0  0  0
 39 42  2  0  0  0  0
 33 43  1  0  0  0  0
 43 44  1  0  0  0  0
 44 45  1  0  0  0  0
 45 46  2  0  0  0  0
 46 47  1  0  0  0  0
 47 48  1  0  0  0  0
 48 49  2  0  0  0  0
 49 50  1  0  0  0  0
 49 51  1  0  0  0  0
 51 52  1  0  0  0  0
 52 53  1  0  0  0  0
 51 54  2  0  0  0  0
 45 55  1  0  0  0  0
 55 56  2  0  0  0  0
 56 57  1  0  0  0  0
 57 58  2  0  0  0  0
 58 59  1  0  0  0  0
 59 60  1  0  0  0  0
 60 61  1  0  0  0  0
 61 62  1  0  0  0  0
 62 63  1  0  0  0  0
 61 64  2  0  0  0  0
 64 65  1  0  0  0  0
 64 66  1  0  0  0  0
 66 67  1  0  0  0  0
 58 68  1  0  0  0  0
 68 69  2  0  0  0  0
 69 70  1  0  0  0  0
 70 71  1  0  0  0  0
 71 72  1  0  0  0  0
 72 73  1  0  0  0  0
 73 74  1  0  0  0  0
 74 75  1  0  0  0  0
 73 76  2  0  0  0  0
 76 77  1  0  0  0  0
 77 78  1  0  0  0  0
 76 79  1  0  0  0  0
 70 80  2  0  0  0  0
 80 81  1  0  0  0  0
 69 82  1  0  0  0  0
 82 83  2  0  0  0  0
 83 84  1  0  0  0  0
 83 85  1  0  0  0  0
 85 86  2  0  0  0  0
 86 87  1  0  0  0  0
 87 88  2  0  0  0  0
 88 89  1  0  0  0  0
 89 90  1  0  0  0  0
 90 91  1  0  0  0  0
 91 92  1  0  0  0  0
 92 93  1  0  0  0  0
 91 94  2  0  0  0  0
 94 95  1  0  0  0  0
 94 96  1  0  0  0  0
 96 97  1  0  0  0  0
 88 98  1  0  0  0  0
 98 99  2  0  0  0  0
 99100  1  0  0  0  0
100101  1  0  0  0  0
101102  1  0  0  0  0
102103  1  0  0  0  0
103104  1  0  0  0  0
104105  1  0  0  0  0
103106  2  0  0  0  0
106107  1  0  0  0  0
107108  1  0  0  0  0
106109  1  0  0  0  0
100110  2  0  0  0  0
110111  1  0  0  0  0
 99112  1  0  0  0  0
112113  2  0  0  0  0
113114  1  0  0  0  0
113115  1  0  0  0  0
115116  1  0  0  0  0
116117  1  0  0  0  0
117118  2  0  0  0  0
118119  1  0  0  0  0
119120  1  0  0  0  0
120121  2  0  0  0  0
121122  1  0  0  0  0
121123  1  0  0  0  0
123124  1  0  0  0  0
124125  1  0  0  0  0
123126  2  0  0  0  0
 27  1  1  0  0  0  0
 35 31  2  0  0  0  0
 47 43  2  0  0  0  0
 81 55  1  0  0  0  0
111 85  1  0  0  0  0
119115  2  0  0  0  0
 26  3  1  0  0  0  0
 42 34  1  0  0  0  0
 54 46  1  0  0  0  0
 80 57  1  0  0  0  0
110 87  1  0  0  0  0
126118  1  0  0  0  0
 12  5  2  0  0  0  0
 30 14  1  0  0  0  0
 66 59  2  0  0  0  0
 84 68  1  0  0  0  0
 96 89  2  0  0  0  0
114 98  1  0  0  0  0
 23 17  2  0  0  0  0
 77 71  2  0  0  0  0
107101  2  0  0  0  0
  1127  1  0  0  0  0
  2128  1  0  0  0  0
  8129  1  0  0  0  0
  8130  1  0  0  0  0
  9131  1  0  0  0  0
  9132  1  0  0  0  0
  9133  1  0  0  0  0
 20134  1  0  0  0  0
 20135  1  0  0  0  0
 21136  1  0  0  0  0
 21137  1  0  0  0  0
 21138  1  0  0  0  0
 28139  1  0  0  0  0
 36140  1  0  0  0  0
 38141  1  0  0  0  0
 38142  1  0  0  0  0
 38143  1  0  0  0  0
 41144  1  0  0  0  0
 41145  1  0  0  0  0
 41146  1  0  0  0  0
 42147  1  0  0  0  0
 48148  1  0  0  0  0
 50149  1  0  0  0  0
 50150  1  0  0  0  0
 50151  1  0  0  0  0
 53152  1  0  0  0  0
 53153  1  0  0  0  0
 53154  1  0  0  0  0
 54155  1  0  0  0  0
 56156  1  0  0  0  0
 62157  1  0  0  0  0
 62158  1  0  0  0  0
 63159  1  0  0  0  0
 63160  1  0  0  0  0
 63161  1  0  0  0  0
 74162  1  0  0  0  0
 74163  1  0  0  0  0
 75164  1  0  0  0  0
 75165  1  0  0  0  0
 75166  1  0  0  0  0
 82167  1  0  0  0  0
 86168  1  0  0  0  0
 92169  1  0  0  0  0
 92170  1  0  0  0  0
 93171  1  0  0  0  0
 93172  1  0  0  0  0
 93173  1  0  0  0  0
104174  1  0  0  0  0
104175  1  0  0  0  0
105176  1  0  0  0  0
105177  1  0  0  0  0
105178  1  0  0  0  0
112179  1  0  0  0  0
117180  1  0  0  0  0
120181  1  0  0  0  0
122182  1  0  0  0  0
122183  1  0  0  0  0
122184  1  0  0  0  0
125185  1  0  0  0  0
125186  1  0  0  0  0
125187  1  0  0  0  0
126188  1  0  0  0  0
M  END
