272

C        -18.77080        1.56260        4.87390
C        -17.86470        0.63690        5.24700
C        -16.92870        0.32790        4.21520
C        -15.86510       -0.58560        4.25060
C        -15.58890       -1.40750        5.43620
C        -14.31400       -1.43760        5.99950
C        -14.05870       -2.19740        7.11960
C        -15.05540       -2.96780        7.71750
S        -14.59650       -3.92550        9.12760
C        -16.12040       -3.95670       10.15490
C        -15.72950       -4.17870       11.60270
C        -16.31500       -2.95300        7.12600
F        -17.32230       -3.70940        7.61920
C        -16.58980       -2.17910        6.01620
C        -15.07620       -0.66570        3.11280
C        -15.31120        0.10390        1.94690
C        -16.38970        1.00050        1.90340
C        -16.69400        1.77670        0.69550
C        -16.87450        3.15490        0.75060
C        -17.17390        3.88290       -0.38480
C        -17.30900        3.25620       -1.61830
S        -17.72040        4.05020       -3.13490
C        -17.45840        5.82570       -2.79870
C        -15.98900        6.17340       -2.65440
C        -17.13720        1.87040       -1.65580
C        -16.83010        1.13470       -0.53430
F        -17.28070        1.22520       -2.82990
C        -17.16370        1.09860        3.05140
S        -18.55310        2.13520        3.25550
C        -14.33300       -0.13910        0.94640
C        -13.41470       -1.07970        1.29990
S        -13.70510       -1.72360        2.90710
C        -12.26800       -1.52150        0.57460
C        -11.44240       -2.55590        0.89880
C        -10.32200       -2.68210        0.04030
C         -9.26110       -3.59870        0.13560
C         -9.19740       -4.59650        1.21010
C         -9.35600       -4.23100        2.54360
C         -9.29090       -5.16870        3.55630
C         -9.05830       -6.50940        3.27140
S         -8.97760       -7.81420        4.45060
C         -8.91610       -6.96450        6.06550
C         -7.57560       -6.30000        6.31720
C         -8.89750       -6.86070        1.92920
F         -8.67900       -8.15280        1.61480
C         -8.95980       -5.93690        0.91140
C         -8.25730       -3.48590       -0.81390
C         -8.26250       -2.49430       -1.82520
C         -9.32320       -1.57790       -1.92270
C         -9.29640       -0.52140       -2.94140
C         -8.16900        0.28440       -3.08700
C         -8.09200        1.23220       -4.08690
C         -9.13900        1.40490       -4.98580
S         -9.12550        2.54760       -6.32620
C         -7.34460        2.80820       -6.65220
C         -6.64890        1.54700       -7.12440
C        -10.28470        0.63100       -4.79290
C        -10.37660       -0.31550       -3.79550
F        -11.33320        0.79490       -5.62170
C        -10.33950       -1.70780       -0.99040
S        -11.73030       -0.66250       -0.85590
C         -7.09050       -2.54600       -2.61750
C         -6.19470       -3.49000       -2.21320
S         -6.79020       -4.43440       -0.86150
C         -4.86080       -3.63720       -2.69440
C         -3.90730       -4.54150       -2.33570
C         -2.62540       -4.25810       -2.87650
C         -1.41080       -4.91220       -2.60600
C         -1.37760       -6.17570       -1.86210
C         -2.22460       -7.22530       -2.21950
C         -2.16060       -8.43480       -1.56300
C         -1.26490       -8.64560       -0.51580
S         -1.29170      -10.23000        0.26830
C          0.47440      -10.59570        0.58660
C          1.29970      -10.56500       -0.68420
C         -0.45640       -7.57640       -0.14270
F          0.39950       -7.68450        0.89830
C         -0.49230       -6.36750       -0.80690
C         -0.25800       -4.29660       -3.07290
C         -0.27020       -3.10590       -3.84280
C         -1.48850       -2.48620       -4.16690
C         -1.55210       -1.22410       -4.91290
C         -0.76430       -0.13410       -4.54980
C         -0.83890        1.06320       -5.23360
C         -1.70750        1.21650       -6.30860
S         -1.90450        2.69820       -7.24270
C         -0.32740        3.58290       -6.98490
C          0.85150        2.84350       -7.58540
C         -2.51010        0.12560       -6.64480
C         -2.44350       -1.07450       -5.97350
F         -3.38140        0.24530       -7.66690
C         -2.63530       -3.08230       -3.66670
S         -4.23750       -2.40810       -3.78200
C          1.03780       -2.66220       -4.15360
C          2.02250       -3.43580       -3.61150
S          1.37660       -4.82990       -2.77220
C          3.40910       -3.10540       -3.52270
C          3.95400       -1.87770       -3.76510
C          5.30740       -1.76660       -3.36670
C          6.10740       -0.61020       -3.39000
C          5.61020        0.62860       -4.00000
C          5.05900        0.62190       -5.28170
C          4.57210        1.78140       -5.84540
C          4.60360        2.99050       -5.15240
S          3.90610        4.40990       -5.94130
C          4.97710        5.79140       -5.37740
C          4.92500        6.90460       -6.40460
C          5.14120        2.98040       -3.86900
F          5.16030        4.10530       -3.12040
C          5.65120        1.83050       -3.30170
C          7.34190       -0.70190       -2.76980
C          7.83090       -1.90400       -2.19890
C          7.06230       -3.08180       -2.24690
C          7.59790       -4.34320       -1.72540
C          6.85950       -5.16350       -0.87850
C          7.38140       -6.34580       -0.38900
C          8.66680       -6.75280       -0.72900
S          9.45540       -8.22290       -0.17480
C          8.13920       -9.08520        0.76230
C          8.67040      -10.43210        1.21530
C          9.39790       -5.91930       -1.57880
C          8.88840       -4.74340       -2.07610
F         10.65330       -6.27550       -1.92570
C          5.79300       -2.96870       -2.79490
S          4.57560       -4.21960       -2.84340
C          9.07030       -1.71300       -1.54080
C          9.54950       -0.43570       -1.62010
S          8.47930        0.60170       -2.55340
C         10.68550        0.13610       -0.98520
S         10.70420        1.84000       -0.68560
C         12.16450        1.75200        0.23680
C         12.66070        0.44480        0.25750
C         11.81960       -0.47610       -0.44240
C         12.22360       -1.82480       -0.54650
C         13.37510       -2.26070        0.03900
C         13.82180       -3.68300       -0.05560
C         14.20540       -1.33360        0.74680
O         15.33060       -1.87780        1.27980
C         16.21370       -1.04430        1.98890
C         13.86440       -0.01010        0.83500
C         12.64810        2.92610        0.88030
C         13.41020        3.03990        2.00750
C         13.66230        4.37980        2.39650
C         14.43230        4.83080        3.47970
C         15.03650        3.88930        4.43070
C         14.25970        2.92360        5.06500
C         14.81660        2.03610        5.96530
C         16.17340        2.08380        6.26470
S         17.00850        0.98970        7.36740
C         15.67490        0.33680        8.43170
C         15.06960        1.40890        9.31710
C         16.94110        3.05220        5.61580
F         18.26330        3.11560        5.86750
C         16.39740        3.94640        4.72080
C         14.57830        6.20440        3.61090
C         13.97790        7.13560        2.73010
C         13.20410        6.68450        1.65000
C         12.57970        7.61370        0.69960
C         11.22360        7.51910        0.39130
C         10.64990        8.37650       -0.52130
C         11.39860        9.36320       -1.16270
S         10.53800       10.41830       -2.28580
C         11.80290       10.86580       -3.54220
C         11.09700       11.26690       -4.82250
C         12.74580        9.46040       -0.82820
C         13.33580        8.59980        0.07560
F         13.53380       10.41410       -1.37750
C         13.06210        5.31200        1.51550
S         12.19010        4.50030        0.24230
C         14.23190        8.47950        3.13690
C         14.98840        8.55790        4.24990
S         15.44700        7.01580        4.88860
H        -19.57600        1.96810        5.45500
H        -17.83920        0.18650        6.22250
H        -13.52600       -0.83800        5.57110
H        -13.07460       -2.20600        7.56160
H        -16.76420       -4.75670        9.79260
H        -16.61550       -2.99570       10.02430
H        -15.20720       -5.12600       11.71580
H        -15.07570       -3.38110       11.94880
H        -16.62170       -4.19590       12.22490
H        -17.58120       -2.21520        5.59130
H        -16.76320        3.67100        1.69190
H        -17.30990        4.94830       -0.29570
H        -18.04370        6.10750       -1.92440
H        -17.88730        6.31410       -3.67380
H        -15.87550        7.24450       -2.49750
H        -15.44810        5.89420       -3.55540
H        -15.54290        5.64900       -1.81190
H        -16.72340        0.06450       -0.61900
H        -14.30120        0.37860        0.00420
H        -11.63650       -3.21080        1.72920
H         -9.51080       -3.19320        2.79760
H         -9.42950       -4.84130        4.57370
H         -9.74920       -6.26540        6.12470
H         -9.08870       -7.76820        6.78130
H         -6.77890       -7.03910        6.28010
H         -7.36830       -5.53770        5.56910
H         -7.57280       -5.83330        7.30050
H         -8.84220       -6.27030       -0.10740
H         -7.34650        0.18000       -2.39530
H         -7.20500        1.84010       -4.16340
H         -6.88110        3.23070       -5.76150
H         -7.34430        3.56710       -7.43440
H         -5.61130        1.76460       -7.36780
H         -7.13780        1.15820       -8.01430
H         -6.66930        0.77590       -6.35690
H        -11.27490       -0.90680       -3.71410
H         -6.90590       -1.89770       -3.45500
H         -4.10310       -5.35430       -1.65910
H         -2.91180       -7.09860       -3.04200
H         -2.80480       -9.24950       -1.85460
H          0.85180       -9.90300        1.33550
H          0.44600      -11.59860        1.01270
H          0.88100      -11.24030       -1.42740
H          2.31990      -10.87470       -0.46590
H          1.32840       -9.56190       -1.10590
H          0.15360       -5.57380       -0.46600
H         -0.10700       -0.21170       -3.69690
H         -0.22150        1.88690       -4.91260
H         -0.48700        4.53550       -7.48940
H         -0.19770        3.77290       -5.92050
H          0.70000        2.69650       -8.65230
H          1.76030        3.42220       -7.43360
H          0.97930        1.86920       -7.11740
H         -3.07260       -1.88940       -6.29460
H          1.23860       -1.79250       -4.75050
H          3.38890       -1.05030       -4.15280
H          5.03870       -0.29700       -5.84770
H          4.15640        1.77260       -6.84120
H          4.61620        6.13180       -4.40800
H          5.98540        5.39220       -5.27760
H          5.55900        7.72780       -6.08270
H          5.27420        6.55040       -7.37210
H          3.90760        7.27240       -6.51860
H          6.04370        1.88190       -2.29850
H          5.86840       -4.86610       -0.57370
H          6.77590       -6.94610        0.26960
H          7.28220       -9.20620        0.09970
H          7.87060       -8.46560        1.61820
H          8.95890      -11.03550        0.35780
H          9.54130      -10.30310        1.85360
H          7.90280      -10.96300        1.77430
H          9.48750       -4.15540       -2.75390
H          9.53620       -2.47990       -0.95200
H         11.62990       -2.51590       -1.12190
H         14.79600       -3.73660       -0.53870
H         13.10990       -4.28020       -0.61860
H         13.93430       -4.10470        0.94190
H         15.72540       -0.58190        2.85330
H         16.63080       -0.26070        1.34840
H         17.01780       -1.69170        2.33450
H         14.51490        0.70380        1.30920
H         13.75920        2.19810        2.57470
H         13.19930        2.87910        4.86580
H         14.18180        1.29960        6.43140
H         16.17980       -0.42180        9.02970
H         14.93160       -0.15550        7.80580
H         14.31560        0.96960        9.96750
H         14.60240        2.19030        8.72110
H         15.84020        1.86380        9.93500
H         17.03940        4.67150        4.24640
H         10.61460        6.77310        0.87770
H          9.60050        8.29840       -0.75870
H         12.40370       11.68530       -3.15090
H         12.42880        9.98810       -3.69590
H         10.44990       12.12370       -4.64880
H         11.83240       11.53280       -5.57870
H         10.48940       10.44620       -5.19710
H         14.39120        8.70260        0.27630
H         13.84250        9.33730        2.61950
H         15.32100        9.44060        4.76020
