
  xtb     03042205233D
 energy: -306.987040487156 gnorm: 0.000566640127 xtb: 6.4.1 (unknown)
182199  0     0  0            999 V2000
   -2.0679  -13.6517   -6.2886 C   0  0  0  0  0  0  0  0  0  0  0  0
   -0.8170  -12.6038   -6.7790 S   0  0  0  0  0  0  0  0  0  0  0  0
   -1.4645  -11.2565   -5.8793 C   0  0  0  0  0  0  0  0  0  0  0  0
   -2.6417  -11.6522   -5.2224 C   0  0  0  0  0  0  0  0  0  0  0  0
   -2.9744  -13.0247   -5.4655 C   0  0  0  0  0  0  0  0  0  0  0  0
   -4.1290  -13.5883   -4.8700 C   0  0  0  0  0  0  0  0  0  0  0  0
   -4.9293  -12.8397   -4.0650 C   0  0  0  0  0  0  0  0  0  0  0  0
   -6.1499  -13.3968   -3.4064 C   0  0  0  0  0  0  0  0  0  0  0  0
   -4.6059  -11.4615   -3.8392 C   0  0  0  0  0  0  0  0  0  0  0  0
   -5.4794  -10.8060   -3.0294 O   0  0  0  0  0  0  0  0  0  0  0  0
   -5.2249   -9.4600   -2.7073 C   0  0  0  0  0  0  0  0  0  0  0  0
   -3.5008  -10.8859   -4.4094 C   0  0  0  0  0  0  0  0  0  0  0  0
   -0.7859  -10.0149   -5.8328 C   0  0  0  0  0  0  0  0  0  0  0  0
   -1.1724   -8.8574   -4.5995 S   0  0  0  0  0  0  0  0  0  0  0  0
    0.0491   -7.7375   -5.1045 C   0  0  0  0  0  0  0  0  0  0  0  0
    0.7305   -8.2339   -6.2192 C   0  0  0  0  0  0  0  0  0  0  0  0
    0.2623   -9.5208   -6.6311 C   0  0  0  0  0  0  0  0  0  0  0  0
    0.8461  -10.1127   -7.7703 C   0  0  0  0  0  0  0  0  0  0  0  0
    1.8471   -9.4924   -8.4596 C   0  0  0  0  0  0  0  0  0  0  0  0
    2.4737  -10.1091   -9.6685 C   0  0  0  0  0  0  0  0  0  0  0  0
    2.3063   -8.2078   -8.0377 C   0  0  0  0  0  0  0  0  0  0  0  0
    3.3002   -7.6773   -8.8033 O   0  0  0  0  0  0  0  0  0  0  0  0
    3.8198   -6.4202   -8.4517 C   0  0  0  0  0  0  0  0  0  0  0  0
    1.7479   -7.5895   -6.9517 C   0  0  0  0  0  0  0  0  0  0  0  0
    0.1865   -6.5252   -4.3826 C   0  0  0  0  0  0  0  0  0  0  0  0
    1.2350   -5.6513   -4.3045 C   0  0  0  0  0  0  0  0  0  0  0  0
    0.9972   -4.5400   -3.4600 C   0  0  0  0  0  0  0  0  0  0  0  0
    1.8605   -3.4622   -3.1984 C   0  0  0  0  0  0  0  0  0  0  0  0
    3.1423   -3.3431   -3.9028 C   0  0  0  0  0  0  0  0  0  0  0  0
    3.1956   -3.4467   -5.2908 C   0  0  0  0  0  0  0  0  0  0  0  0
    4.3942   -3.3591   -5.9711 C   0  0  0  0  0  0  0  0  0  0  0  0
    5.5866   -3.1582   -5.2851 C   0  0  0  0  0  0  0  0  0  0  0  0
    7.1832   -3.0750   -6.0292 S   0  0  0  0  0  0  0  0  0  0  0  0
    6.8321   -2.6609   -7.7739 C   0  0  0  0  0  0  0  0  0  0  0  0
    6.2552   -1.2666   -7.9261 C   0  0  0  0  0  0  0  0  0  0  0  0
    5.5187   -3.0515   -3.8951 C   0  0  0  0  0  0  0  0  0  0  0  0
    6.6569   -2.8674   -3.1982 F   0  0  0  0  0  0  0  0  0  0  0  0
    4.3298   -3.1362   -3.2053 C   0  0  0  0  0  0  0  0  0  0  0  0
    1.4281   -2.5301   -2.2678 C   0  0  0  0  0  0  0  0  0  0  0  0
    0.1665   -2.6066   -1.6263 C   0  0  0  0  0  0  0  0  0  0  0  0
   -0.7217   -3.6543   -1.9309 C   0  0  0  0  0  0  0  0  0  0  0  0
   -2.0686   -3.7174   -1.3522 C   0  0  0  0  0  0  0  0  0  0  0  0
   -2.9047   -2.6004   -1.3577 C   0  0  0  0  0  0  0  0  0  0  0  0
   -4.1845   -2.6755   -0.8528 C   0  0  0  0  0  0  0  0  0  0  0  0
   -4.6852   -3.8634   -0.3220 C   0  0  0  0  0  0  0  0  0  0  0  0
   -6.3331   -3.8449    0.3123 S   0  0  0  0  0  0  0  0  0  0  0  0
   -6.9633   -5.5224   -0.1006 C   0  0  0  0  0  0  0  0  0  0  0  0
   -8.4727   -5.4626   -0.2288 C   0  0  0  0  0  0  0  0  0  0  0  0
   -3.8333   -4.9631   -0.2999 C   0  0  0  0  0  0  0  0  0  0  0  0
   -2.5534   -4.9038   -0.8114 C   0  0  0  0  0  0  0  0  0  0  0  0
   -4.2338   -6.1392    0.2371 F   0  0  0  0  0  0  0  0  0  0  0  0
   -0.2693   -4.6071   -2.8282 C   0  0  0  0  0  0  0  0  0  0  0  0
   -1.1581   -6.0064   -3.3682 S   0  0  0  0  0  0  0  0  0  0  0  0
   -0.0187   -1.5525   -0.6999 C   0  0  0  0  0  0  0  0  0  0  0  0
    1.0240   -0.6728   -0.6533 C   0  0  0  0  0  0  0  0  0  0  0  0
    2.3085   -1.1123   -1.7598 S   0  0  0  0  0  0  0  0  0  0  0  0
    1.1299    0.4814    0.1796 C   0  0  0  0  0  0  0  0  0  0  0  0
    0.3191    0.8058    1.2282 C   0  0  0  0  0  0  0  0  0  0  0  0
    0.6701    2.0200    1.8661 C   0  0  0  0  0  0  0  0  0  0  0  0
    0.0330    2.6287    2.9629 C   0  0  0  0  0  0  0  0  0  0  0  0
   -1.1975    2.0628    3.5271 C   0  0  0  0  0  0  0  0  0  0  0  0
   -1.3423    1.8456    4.8964 C   0  0  0  0  0  0  0  0  0  0  0  0
   -2.5029    1.3026    5.4011 C   0  0  0  0  0  0  0  0  0  0  0  0
   -3.5676    0.9461    4.5710 C   0  0  0  0  0  0  0  0  0  0  0  0
   -4.9605    0.2073    5.3603 S   0  0  0  0  0  0  0  0  0  0  0  0
   -6.3768    0.5185    4.2328 C   0  0  0  0  0  0  0  0  0  0  0  0
   -7.6626    0.3398    5.0161 C   0  0  0  0  0  0  0  0  0  0  0  0
   -3.4061    1.1626    3.2061 C   0  0  0  0  0  0  0  0  0  0  0  0
   -4.3729    0.8254    2.3186 F   0  0  0  0  0  0  0  0  0  0  0  0
   -2.2545    1.7205    2.6896 C   0  0  0  0  0  0  0  0  0  0  0  0
    0.6197    3.7808    3.4587 C   0  0  0  0  0  0  0  0  0  0  0  0
    1.7639    4.3773    2.8714 C   0  0  0  0  0  0  0  0  0  0  0  0
    2.3613    3.8047    1.7340 C   0  0  0  0  0  0  0  0  0  0  0  0
    3.4787    4.4733    1.0588 C   0  0  0  0  0  0  0  0  0  0  0  0
    4.6388    3.7909    0.6967 C   0  0  0  0  0  0  0  0  0  0  0  0
    5.6698    4.4472    0.0601 C   0  0  0  0  0  0  0  0  0  0  0  0
    5.5972    5.8087   -0.2348 C   0  0  0  0  0  0  0  0  0  0  0  0
    7.0034    6.5413   -1.0096 S   0  0  0  0  0  0  0  0  0  0  0  0
    6.2957    7.8971   -2.0304 C   0  0  0  0  0  0  0  0  0  0  0  0
    7.2645    8.2222   -3.1500 C   0  0  0  0  0  0  0  0  0  0  0  0
    4.4415    6.4814    0.1493 C   0  0  0  0  0  0  0  0  0  0  0  0
    3.3931    5.8317    0.7663 C   0  0  0  0  0  0  0  0  0  0  0  0
    4.3027    7.8139   -0.0588 F   0  0  0  0  0  0  0  0  0  0  0  0
    1.8166    2.6128    1.2810 C   0  0  0  0  0  0  0  0  0  0  0  0
    2.3885    1.6732   -0.0736 S   0  0  0  0  0  0  0  0  0  0  0  0
    2.1846    5.5294    3.5773 C   0  0  0  0  0  0  0  0  0  0  0  0
    1.3827    5.8573    4.6348 C   0  0  0  0  0  0  0  0  0  0  0  0
    0.0594    4.7120    4.8232 S   0  0  0  0  0  0  0  0  0  0  0  0
    1.5193    6.9312    5.5529 C   0  0  0  0  0  0  0  0  0  0  0  0
    0.8203    6.8021    7.1312 S   0  0  0  0  0  0  0  0  0  0  0  0
    1.4563    8.3319    7.6527 C   0  0  0  0  0  0  0  0  0  0  0  0
    2.1772    8.9317    6.6069 C   0  0  0  0  0  0  0  0  0  0  0  0
    2.1999    8.1442    5.4152 C   0  0  0  0  0  0  0  0  0  0  0  0
    2.8267    8.6637    4.2622 C   0  0  0  0  0  0  0  0  0  0  0  0
    3.4665    9.8668    4.2898 C   0  0  0  0  0  0  0  0  0  0  0  0
    4.1349   10.4368    3.0810 C   0  0  0  0  0  0  0  0  0  0  0  0
    3.5129   10.6097    5.5102 C   0  0  0  0  0  0  0  0  0  0  0  0
    4.2143   11.7740    5.4373 O   0  0  0  0  0  0  0  0  0  0  0  0
    4.3008   12.5783    6.5867 C   0  0  0  0  0  0  0  0  0  0  0  0
    2.8743   10.1569    6.6341 C   0  0  0  0  0  0  0  0  0  0  0  0
    1.1715    8.8216    8.9521 C   0  0  0  0  0  0  0  0  0  0  0  0
    1.2288   10.5283    9.2996 S   0  0  0  0  0  0  0  0  0  0  0  0
    0.7125   10.3102   10.9120 C   0  0  0  0  0  0  0  0  0  0  0  0
    0.4995    8.9844   11.2091 C   0  0  0  0  0  0  0  0  0  0  0  0
    0.7574    8.1221   10.0936 C   0  0  0  0  0  0  0  0  0  0  0  0
    0.6154    6.7306   10.2815 C   0  0  0  0  0  0  0  0  0  0  0  0
    0.2158    6.2198   11.4807 C   0  0  0  0  0  0  0  0  0  0  0  0
    0.0651    4.7487   11.6982 C   0  0  0  0  0  0  0  0  0  0  0  0
   -0.0680    7.0960   12.5794 C   0  0  0  0  0  0  0  0  0  0  0  0
   -0.4657    6.4588   13.7161 O   0  0  0  0  0  0  0  0  0  0  0  0
   -0.7579    7.2358   14.8491 C   0  0  0  0  0  0  0  0  0  0  0  0
    0.0778    8.4471   12.4492 C   0  0  0  0  0  0  0  0  0  0  0  0
   -2.0742  -14.6676   -6.6289 H   0  0  0  0  0  0  0  0  0  0  0  0
   -4.3593  -14.6250   -5.0650 H   0  0  0  0  0  0  0  0  0  0  0  0
   -7.0313  -12.8409   -3.7219 H   0  0  0  0  0  0  0  0  0  0  0  0
   -6.2792  -14.4464   -3.6556 H   0  0  0  0  0  0  0  0  0  0  0  0
   -6.0704  -13.2905   -2.3258 H   0  0  0  0  0  0  0  0  0  0  0  0
   -5.2563   -8.8203   -3.5951 H   0  0  0  0  0  0  0  0  0  0  0  0
   -4.2570   -9.3402   -2.2111 H   0  0  0  0  0  0  0  0  0  0  0  0
   -6.0191   -9.1666   -2.0225 H   0  0  0  0  0  0  0  0  0  0  0  0
   -3.2901   -9.8443   -4.2482 H   0  0  0  0  0  0  0  0  0  0  0  0
    0.4899  -11.0678   -8.1192 H   0  0  0  0  0  0  0  0  0  0  0  0
    3.5448  -10.2282   -9.5134 H   0  0  0  0  0  0  0  0  0  0  0  0
    2.0320  -11.0788   -9.8804 H   0  0  0  0  0  0  0  0  0  0  0  0
    2.3426   -9.4577  -10.5313 H   0  0  0  0  0  0  0  0  0  0  0  0
    4.6070   -6.2154   -9.1762 H   0  0  0  0  0  0  0  0  0  0  0  0
    4.2475   -6.4276   -7.4432 H   0  0  0  0  0  0  0  0  0  0  0  0
    3.0555   -5.6378   -8.5151 H   0  0  0  0  0  0  0  0  0  0  0  0
    2.0544   -6.6028   -6.6536 H   0  0  0  0  0  0  0  0  0  0  0  0
    2.1854   -5.8193   -4.7740 H   0  0  0  0  0  0  0  0  0  0  0  0
    2.2798   -3.5807   -5.8473 H   0  0  0  0  0  0  0  0  0  0  0  0
    4.3937   -3.4556   -7.0453 H   0  0  0  0  0  0  0  0  0  0  0  0
    7.8095   -2.7315   -8.2508 H   0  0  0  0  0  0  0  0  0  0  0  0
    6.1851   -3.4293   -8.1962 H   0  0  0  0  0  0  0  0  0  0  0  0
    6.9380   -0.5316   -7.5067 H   0  0  0  0  0  0  0  0  0  0  0  0
    6.1034   -1.0405   -8.9799 H   0  0  0  0  0  0  0  0  0  0  0  0
    5.3010   -1.1803   -7.4104 H   0  0  0  0  0  0  0  0  0  0  0  0
    4.3403   -3.0584   -2.1299 H   0  0  0  0  0  0  0  0  0  0  0  0
   -2.5576   -1.6765   -1.7945 H   0  0  0  0  0  0  0  0  0  0  0  0
   -4.8292   -1.8105   -0.8666 H   0  0  0  0  0  0  0  0  0  0  0  0
   -6.6616   -6.2080    0.6899 H   0  0  0  0  0  0  0  0  0  0  0  0
   -6.4990   -5.8160   -1.0411 H   0  0  0  0  0  0  0  0  0  0  0  0
   -8.8605   -6.4490   -0.4744 H   0  0  0  0  0  0  0  0  0  0  0  0
   -8.9216   -5.1344    0.7059 H   0  0  0  0  0  0  0  0  0  0  0  0
   -8.7624   -4.7665   -1.0128 H   0  0  0  0  0  0  0  0  0  0  0  0
   -1.9351   -5.7856   -0.7537 H   0  0  0  0  0  0  0  0  0  0  0  0
   -0.8934   -1.4592   -0.0834 H   0  0  0  0  0  0  0  0  0  0  0  0
   -0.4856    0.1773    1.5618 H   0  0  0  0  0  0  0  0  0  0  0  0
   -0.5333    2.0907    5.5666 H   0  0  0  0  0  0  0  0  0  0  0  0
   -2.6091    1.1343    6.4614 H   0  0  0  0  0  0  0  0  0  0  0  0
   -6.2802    1.5377    3.8623 H   0  0  0  0  0  0  0  0  0  0  0  0
   -6.3208   -0.1858    3.4042 H   0  0  0  0  0  0  0  0  0  0  0  0
   -7.7329   -0.6729    5.4066 H   0  0  0  0  0  0  0  0  0  0  0  0
   -8.5157    0.5231    4.3666 H   0  0  0  0  0  0  0  0  0  0  0  0
   -7.7015    1.0351    5.8518 H   0  0  0  0  0  0  0  0  0  0  0  0
   -2.1978    1.8922    1.6256 H   0  0  0  0  0  0  0  0  0  0  0  0
    4.7381    2.7417    0.9265 H   0  0  0  0  0  0  0  0  0  0  0  0
    6.5642    3.9131   -0.2203 H   0  0  0  0  0  0  0  0  0  0  0  0
    6.1314    8.7621   -1.3895 H   0  0  0  0  0  0  0  0  0  0  0  0
    5.3445    7.5416   -2.4237 H   0  0  0  0  0  0  0  0  0  0  0  0
    7.4286    7.3502   -3.7790 H   0  0  0  0  0  0  0  0  0  0  0  0
    8.2225    8.5398   -2.7446 H   0  0  0  0  0  0  0  0  0  0  0  0
    6.8610    9.0260   -3.7622 H   0  0  0  0  0  0  0  0  0  0  0  0
    2.5050    6.3958    1.0074 H   0  0  0  0  0  0  0  0  0  0  0  0
    3.0973    6.0470    3.3510 H   0  0  0  0  0  0  0  0  0  0  0  0
    2.7779    8.1129    3.3375 H   0  0  0  0  0  0  0  0  0  0  0  0
    5.1942   10.5913    3.2803 H   0  0  0  0  0  0  0  0  0  0  0  0
    3.7068   11.4087    2.8410 H   0  0  0  0  0  0  0  0  0  0  0  0
    4.0244    9.7755    2.2260 H   0  0  0  0  0  0  0  0  0  0  0  0
    3.3122   12.9091    6.9212 H   0  0  0  0  0  0  0  0  0  0  0  0
    4.8930   13.4447    6.2962 H   0  0  0  0  0  0  0  0  0  0  0  0
    4.8027   12.0549    7.4070 H   0  0  0  0  0  0  0  0  0  0  0  0
    2.9040   10.7209    7.5494 H   0  0  0  0  0  0  0  0  0  0  0  0
    0.5994   11.1623   11.5513 H   0  0  0  0  0  0  0  0  0  0  0  0
    0.8381    6.0543    9.4721 H   0  0  0  0  0  0  0  0  0  0  0  0
    0.3029    4.1978   10.7926 H   0  0  0  0  0  0  0  0  0  0  0  0
    0.7216    4.4203   12.5027 H   0  0  0  0  0  0  0  0  0  0  0  0
   -0.9554    4.5193   12.0008 H   0  0  0  0  0  0  0  0  0  0  0  0
   -1.0517    6.5301   15.6247 H   0  0  0  0  0  0  0  0  0  0  0  0
   -1.5834    7.9295   14.6587 H   0  0  0  0  0  0  0  0  0  0  0  0
    0.1179    7.8002   15.1862 H   0  0  0  0  0  0  0  0  0  0  0  0
   -0.1117    9.1313   13.2604 H   0  0  0  0  0  0  0  0  0  0  0  0
  1  2  1  0  0  0  0
  2  3  1  0  0  0  0
  3  4  2  0  0  0  0
  4  5  1  0  0  0  0
  5  6  1  0  0  0  0
  6  7  2  0  0  0  0
  7  8  1  0  0  0  0
  7  9  1  0  0  0  0
  9 10  1  0  0  0  0
 10 11  1  0  0  0  0
  9 12  2  0  0  0  0
  3 13  1  0  0  0  0
 13 14  1  0  0  0  0
 14 15  1  0  0  0  0
 15 16  2  0  0  0  0
 16 17  1  0  0  0  0
 17 18  1  0  0  0  0
 18 19  2  0  0  0  0
 19 20  1  0  0  0  0
 19 21  1  0  0  0  0
 21 22  1  0  0  0  0
 22 23  1  0  0  0  0
 21 24  2  0  0  0  0
 15 25  1  0  0  0  0
 25 26  2  0  0  0  0
 26 27  1  0  0  0  0
 27 28  2  0  0  0  0
 28 29  1  0  0  0  0
 29 30  2  0  0  0  0
 30 31  1  0  0  0  0
 31 32  2  0  0  0  0
 32 33  1  0  0  0  0
 33 34  1  0  0  0  0
 34 35  1  0  0  0  0
 32 36  1  0  0  0  0
 36 37  1  0  0  0  0
 36 38  2  0  0  0  0
 28 39  1  0  0  0  0
 39 40  2  0  0  0  0
 40 41  1  0  0  0  0
 41 42  1  0  0  0  0
 42 43  2  0  0  0  0
 43 44  1  0  0  0  0
 44 45  2  0  0  0  0
 45 46  1  0  0  0  0
 46 47  1  0  0  0  0
 47 48  1  0  0  0  0
 45 49  1  0  0  0  0
 49 50  2  0  0  0  0
 49 51  1  0  0  0  0
 41 52  2  0  0  0  0
 52 53  1  0  0  0  0
 40 54  1  0  0  0  0
 54 55  2  0  0  0  0
 55 56  1  0  0  0  0
 55 57  1  0  0  0  0
 57 58  2  0  0  0  0
 58 59  1  0  0  0  0
 59 60  2  0  0  0  0
 60 61  1  0  0  0  0
 61 62  2  0  0  0  0
 62 63  1  0  0  0  0
 63 64  2  0  0  0  0
 64 65  1  0  0  0  0
 65 66  1  0  0  0  0
 66 67  1  0  0  0  0
 64 68  1  0  0  0  0
 68 69  1  0  0  0  0
 68 70  2  0  0  0  0
 60 71  1  0  0  0  0
 71 72  2  0  0  0  0
 72 73  1  0  0  0  0
 73 74  1  0  0  0  0
 74 75  2  0  0  0  0
 75 76  1  0  0  0  0
 76 77  2  0  0  0  0
 77 78  1  0  0  0  0
 78 79  1  0  0  0  0
 79 80  1  0  0  0  0
 77 81  1  0  0  0  0
 81 82  2  0  0  0  0
 81 83  1  0  0  0  0
 73 84  2  0  0  0  0
 84 85  1  0  0  0  0
 72 86  1  0  0  0  0
 86 87  2  0  0  0  0
 87 88  1  0  0  0  0
 87 89  1  0  0  0  0
 89 90  1  0  0  0  0
 90 91  1  0  0  0  0
 91 92  2  0  0  0  0
 92 93  1  0  0  0  0
 93 94  1  0  0  0  0
 94 95  2  0  0  0  0
 95 96  1  0  0  0  0
 95 97  1  0  0  0  0
 97 98  1  0  0  0  0
 98 99  1  0  0  0  0
 97100  2  0  0  0  0
 91101  1  0  0  0  0
101102  1  0  0  0  0
102103  1  0  0  0  0
103104  2  0  0  0  0
104105  1  0  0  0  0
105106  1  0  0  0  0
106107  2  0  0  0  0
107108  1  0  0  0  0
107109  1  0  0  0  0
109110  1  0  0  0  0
110111  1  0  0  0  0
109112  2  0  0  0  0
  5  1  2  0  0  0  0
 17 13  2  0  0  0  0
 53 25  1  0  0  0  0
 85 57  1  0  0  0  0
 93 89  2  0  0  0  0
105101  2  0  0  0  0
 12  4  1  0  0  0  0
 24 16  1  0  0  0  0
 52 27  1  0  0  0  0
 84 59  1  0  0  0  0
100 92  1  0  0  0  0
112104  1  0  0  0  0
 38 29  1  0  0  0  0
 56 39  1  0  0  0  0
 70 61  1  0  0  0  0
 88 71  1  0  0  0  0
 50 42  1  0  0  0  0
 82 74  1  0  0  0  0
  1113  1  0  0  0  0
  6114  1  0  0  0  0
  8115  1  0  0  0  0
  8116  1  0  0  0  0
  8117  1  0  0  0  0
 11118  1  0  0  0  0
 11119  1  0  0  0  0
 11120  1  0  0  0  0
 12121  1  0  0  0  0
 18122  1  0  0  0  0
 20123  1  0  0  0  0
 20124  1  0  0  0  0
 20125  1  0  0  0  0
 23126  1  0  0  0  0
 23127  1  0  0  0  0
 23128  1  0  0  0  0
 24129  1  0  0  0  0
 26130  1  0  0  0  0
 30131  1  0  0  0  0
 31132  1  0  0  0  0
 34133  1  0  0  0  0
 34134  1  0  0  0  0
 35135  1  0  0  0  0
 35136  1  0  0  0  0
 35137  1  0  0  0  0
 38138  1  0  0  0  0
 43139  1  0  0  0  0
 44140  1  0  0  0  0
 47141  1  0  0  0  0
 47142  1  0  0  0  0
 48143  1  0  0  0  0
 48144  1  0  0  0  0
 48145  1  0  0  0  0
 50146  1  0  0  0  0
 54147  1  0  0  0  0
 58148  1  0  0  0  0
 62149  1  0  0  0  0
 63150  1  0  0  0  0
 66151  1  0  0  0  0
 66152  1  0  0  0  0
 67153  1  0  0  0  0
 67154  1  0  0  0  0
 67155  1  0  0  0  0
 70156  1  0  0  0  0
 75157  1  0  0  0  0
 76158  1  0  0  0  0
 79159  1  0  0  0  0
 79160  1  0  0  0  0
 80161  1  0  0  0  0
 80162  1  0  0  0  0
 80163  1  0  0  0  0
 82164  1  0  0  0  0
 86165  1  0  0  0  0
 94166  1  0  0  0  0
 96167  1  0  0  0  0
 96168  1  0  0  0  0
 96169  1  0  0  0  0
 99170  1  0  0  0  0
 99171  1  0  0  0  0
 99172  1  0  0  0  0
100173  1  0  0  0  0
103174  1  0  0  0  0
106175  1  0  0  0  0
108176  1  0  0  0  0
108177  1  0  0  0  0
108178  1  0  0  0  0
111179  1  0  0  0  0
111180  1  0  0  0  0
111181  1  0  0  0  0
112182  1  0  0  0  0
M  END
