232

C         -9.84220       -5.04800       14.87150
C         -9.53230       -3.75420       14.65150
C         -9.45630       -3.43160       13.26480
C         -9.18990       -2.18690       12.67220
C         -8.88580       -1.00900       13.46880
S         -7.60910       -1.02880       14.65050
C         -7.85250        0.63520       15.06000
C         -6.98290        1.31990       16.05560
C         -5.68360        1.80250       15.40640
C         -8.86280        1.16180       14.31280
Cl        -9.39670        2.78770       14.43620
C         -9.45310        0.23370       13.41220
Cl       -10.79550        0.63960       12.42750
C         -9.19630       -2.13530       11.28340
C         -9.46410       -3.26500       10.47120
C         -9.75950       -4.50280       11.06550
C        -10.06480       -5.66840       10.25400
S         -9.21230       -7.16840       10.46660
C        -10.10250       -7.94330        9.20180
C         -9.80280       -9.34360        8.79450
C         -8.64520       -9.38510        7.79380
C        -11.00200       -7.07710        8.65520
C        -10.98670       -5.78750        9.25070
Cl       -12.08010       -4.54570        8.79270
Cl       -12.06770       -7.48630        7.37410
C         -9.73270       -4.55700       12.45370
S        -10.06820       -5.96460       13.42230
C         -9.32370       -2.96920        9.09260
C         -8.97510       -1.67500        8.84740
S         -8.79850       -0.74280       10.31910
C         -8.73760       -1.06260        7.58240
C         -8.28120        0.19920        7.34400
C         -8.10160        0.48660        5.96890
C         -7.61500        1.67490        5.39180
C         -7.38940        2.85910        6.19930
S         -5.90470        3.75960        6.10960
C         -6.43970        4.90950        7.28630
C         -5.59160        6.07250        7.66550
C         -5.71130        7.19280        6.62940
C         -7.70200        4.60900        7.70410
Cl        -8.57330        5.52910        8.86150
C         -8.24280        3.44540        7.09520
Cl        -9.84320        2.90780        7.40610
C         -7.35330        1.64590        4.02770
C         -7.65420        0.52230        3.22180
C         -8.25150       -0.62330        3.77820
C         -8.62050       -1.73200        2.91690
S         -8.11360       -3.36350        3.23860
C         -8.83350       -3.95770        1.78170
C         -8.69390       -5.38130        1.36950
C         -7.45190       -5.57100        0.49460
C         -9.43410       -2.94160        1.09950
C         -9.31980       -1.68070        1.74050
Cl       -10.06300       -0.26400        1.11670
Cl       -10.25080       -3.14490       -0.39460
C         -8.41820       -0.62980        5.15500
S         -8.99600       -1.96880        6.10430
C         -7.21090        0.69260        1.89140
C         -6.61670        1.89920        1.66390
S         -6.59880        2.90870        3.09160
C         -5.96040        2.24640        0.44380
C         -6.15690        1.62630       -0.75570
C         -5.18270        1.95530       -1.72520
C         -4.99340        1.35760       -2.98380
C         -5.86770        0.28400       -3.43170
S         -6.68850        0.35180       -4.96190
C         -7.46260       -1.17430       -4.70440
C         -8.43720       -1.72920       -5.68380
C         -9.86700       -1.31890       -5.32200
C         -7.09480       -1.69400       -3.49930
Cl        -7.66060       -3.19430       -2.89300
C         -6.18670       -0.87480       -2.77810
Cl        -5.51420       -1.36430       -1.27420
C         -3.89120        1.77230       -3.71360
C         -2.97420        2.74390       -3.23900
C         -3.18480        3.37040       -1.99560
C         -2.28040        4.38600       -1.48510
S         -0.55570        4.15290       -1.43700
C         -0.28150        5.70170       -0.72020
C          1.09360        6.20900       -0.45870
C          1.54740        7.14050       -1.58550
C         -1.46490        6.35280       -0.53770
C         -2.59820        5.61130       -0.96400
Cl        -4.18340        6.25930       -0.90930
Cl        -1.59350        7.92100        0.14620
C         -4.27640        2.93660       -1.25310
S         -4.63180        3.38160        0.39240
C         -1.87130        2.88630       -4.10860
C         -1.90010        2.05020       -5.19120
S         -3.37220        1.09370       -5.23260
C         -0.81450        1.82340       -6.07820
S          0.77100        2.23220       -5.50990
C          1.54840        1.50340       -6.88110
C          0.59520        1.02730       -7.78840
C         -0.74650        1.19560       -7.32240
C         -1.81670        0.75170       -8.12770
C         -1.58220        0.16860       -9.33750
C         -2.69250       -0.30320      -10.21850
C         -0.23600        0.00660       -9.79940
O         -0.12360       -0.57530      -11.01980
C          1.16320       -0.76680      -11.55800
C          0.82530        0.42810       -9.04120
C          2.95980        1.38290       -6.84970
C          3.76940        1.82860       -5.83700
C          5.12350        1.46190       -5.97440
C          6.16830        1.67290       -5.05520
C          5.96870        2.48640       -3.87060
S          6.40430        1.90740       -2.28920
C          5.86270        3.36020       -1.52200
C          6.00580        3.55570       -0.05320
C          7.42330        4.01280        0.29950
C          5.38810        4.23730       -2.45090
Cl         4.78290        5.79470       -2.06990
C          5.43850        3.74480       -3.78180
Cl         4.95440        4.68920       -5.13150
C          7.37030        1.03000       -5.31710
C          7.59020        0.24900       -6.47780
C          6.57060        0.10530       -7.44060
C          6.77560       -0.67150       -8.65080
S          7.47310       -2.26690       -8.60100
C          7.36250       -2.46460      -10.31620
C          7.81390       -3.72040      -10.97530
C          6.77350       -4.83180      -10.82220
C          6.80040       -1.35890      -10.87960
C          6.47150       -0.34110       -9.94350
Cl         5.85240        1.17810      -10.43910
Cl         6.51770       -1.17940      -12.56340
C          5.35190        0.70200       -7.14940
S          3.88090        0.50920       -8.06010
C          8.88700       -0.31440       -6.48950
C          9.62710       -0.00680       -5.38560
S          8.77740        1.05940       -4.29170
C         10.92150       -0.52820       -5.08050
C         11.44880       -1.67600       -5.59360
C         12.75250       -1.95950       -5.12100
C         13.57800       -3.04490       -5.46050
C         13.14380       -4.02210       -6.44380
S         13.15670       -5.72380       -6.08570
C         12.46290       -6.13330       -7.61730
C         12.22740       -7.55300       -7.99810
C         13.53520       -8.23200       -8.41110
C         12.25320       -5.00780       -8.35640
Cl        11.57360       -5.00760       -9.93180
C         12.63550       -3.80950       -7.69630
Cl        12.53670       -2.27370       -8.46060
C         14.79340       -3.14040       -4.79410
C         15.22620       -2.18710       -3.84150
C         14.42110       -1.07730       -3.54030
C         14.85250       -0.05340       -2.60220
S         13.85500        0.41570       -1.25850
C         15.00230        1.59330       -0.71840
C         14.71460        2.45650        0.45980
C         13.73190        3.57030        0.09120
C         16.08410        1.61670       -1.54710
C         16.00590        0.67980       -2.61300
Cl        17.21330        0.55650       -3.82680
Cl        17.42790        2.66490       -1.34300
C         13.19000       -0.99920       -4.17780
S         12.00250        0.25470       -3.95090
C         16.48980       -2.54050       -3.28320
C         16.99510       -3.67460       -3.80810
S         15.97750       -4.39940       -5.00530
H         -9.96020       -5.54510       15.81430
H         -9.36560       -3.04000       15.43640
H         -6.74790        0.63000       16.86820
H         -7.52650        2.17310       16.46540
H         -5.13080        0.96000       14.99760
H         -5.90150        2.49920       14.60100
H         -5.06210        2.30420       16.14320
H         -9.54100       -9.92900        9.67730
H        -10.69590       -9.77500        8.33880
H         -8.89760       -8.81650        6.90230
H         -8.43740      -10.41190        7.50560
H         -7.74890       -8.95760        8.23680
H         -9.45120       -3.69090        8.30650
H         -8.04650        0.88650        8.13640
H         -4.54980        5.75490        7.73670
H         -5.91510        6.43820        8.64160
H         -5.08830        8.03540        6.91690
H         -5.39180        6.83790        5.65250
H         -6.74210        7.53010        6.55670
H         -9.58270       -5.67460        0.80700
H         -8.61650       -6.01030        2.25760
H         -7.36400       -6.61050        0.19030
H         -7.52080       -4.95240       -0.39630
H         -6.55640       -5.28950        1.04360
H         -7.26170       -0.08050        1.14840
H         -6.96950        0.94870       -0.93600
H         -8.36040       -2.81870       -5.67920
H         -8.19310       -1.36480       -6.68270
H        -10.12520       -1.68560       -4.33170
H         -9.96220       -0.23580       -5.32720
H        -10.56800       -1.73490       -6.04050
H          1.78320        5.36740       -0.37920
H          1.09570        6.75680        0.48610
H          1.57700        6.60400       -2.53070
H          0.86240        7.97880       -1.68110
H          2.54070        7.52540       -1.37280
H         -1.05400        3.56160       -3.93450
H         -2.82950        0.88830       -7.78110
H         -2.58090       -1.36720      -10.42080
H         -3.65750       -0.12440       -9.75300
H         -2.65270        0.21270      -11.17660
H          1.77210       -1.41620      -10.92130
H          1.01000       -1.24620      -12.52350
H          1.68320        0.18490      -11.70380
H          1.83770        0.32480       -9.39090
H          3.38190        2.36350       -4.98910
H          5.28520        4.30790        0.27290
H          5.78970        2.61700        0.46000
H          7.51570        4.14680        1.37390
H          8.14940        3.27160       -0.02550
H          7.64750        4.95710       -0.19010
H          8.75620       -4.04430      -10.52910
H          7.98160       -3.51650      -12.03420
H          6.59590       -5.03940       -9.76950
H          5.83400       -4.53550      -11.28230
H          7.12600       -5.74010      -11.30300
H          9.26790       -0.92140       -7.28830
H         10.90260       -2.31970       -6.25650
H         11.51880       -7.58010       -8.82770
H         11.79470       -8.08860       -7.15100
H         14.24720       -8.20740       -7.58970
H         13.34880       -9.26750       -8.68230
H         13.97270       -7.72140       -9.26530
H         14.28780        1.84860        1.25990
H         15.65130        2.89140        0.81220
H         13.52660        4.18990        0.95990
H         14.14900        4.19670       -0.69320
H         12.79680        3.14440       -0.26510
H         16.97890       -1.96850       -2.51680
H         17.92240       -4.15620       -3.56690
