122

C         -1.25960        3.65640       10.11110
S         -2.36070        2.53390        9.44980
C         -1.71390        2.71040        7.83930
C         -0.66190        3.63680        7.85210
C         -0.41350        4.17300        9.15750
C          0.61150        5.13300        9.33890
C          1.35320        5.56160        8.28280
C          2.44290        6.57490        8.42910
C          1.08250        5.04300        6.97400
O          1.87120        5.56300        5.99250
C          1.68340        5.11600        4.67300
C          0.10270        4.10930        6.76600
C         -2.22150        1.94460        6.76170
S         -1.23140        1.61070        5.36960
C         -2.47480        0.69290        4.57370
C         -3.60280        0.59870        5.39420
C         -3.46830        1.31500        6.62140
C         -4.56450        1.33090        7.50990
C         -5.70030        0.62400        7.24290
C         -6.87050        0.62880        8.17350
C         -5.78240       -0.16720        6.05530
O         -6.94130       -0.87130        5.91840
C         -7.10760       -1.66300        4.76920
C         -4.75580       -0.17620        5.15060
C         -2.26170        0.18060        3.27200
S         -0.71410       -0.46580        2.82000
C         -1.23650       -0.86380        1.20270
C         -2.57860       -0.47780        1.02880
C         -3.14840        0.12010        2.19070
C         -4.45210        0.65570        2.12220
C         -5.20170        0.53100        0.98970
C         -6.58610        1.08820        0.88970
C         -4.65920       -0.15470       -0.13930
O         -5.50550       -0.25580       -1.20250
C         -5.03770       -0.87570       -2.37460
C         -3.37630       -0.63720       -0.12070
C         -0.34310       -1.41770        0.26550
S         -0.59020       -1.18430       -1.44200
C          0.86880       -2.02430       -1.89440
C          1.52310       -2.48090       -0.73460
C          0.84780       -2.13620        0.47310
C          1.37800       -2.57810        1.70080
C          2.53790       -3.29630        1.75280
C          3.10850       -3.78700        3.04440
C          3.23590       -3.58930        0.54470
O          4.39300       -4.28830        0.70940
C          5.12440       -4.65290       -0.43460
C          2.73730       -3.18890       -0.66820
C          1.18860       -2.21790       -3.25200
S          2.26250       -3.49700       -3.75340
C          2.07450       -3.14220       -5.44370
C          1.17890       -2.08420       -5.61770
C          0.69770       -1.54480       -4.38720
C         -0.15630       -0.42480       -4.43790
C         -0.57420        0.09510       -5.62900
C         -1.46780        1.29230       -5.69710
C         -0.16800       -0.52060       -6.85170
O         -0.68490        0.04990       -7.97770
C         -0.29520       -0.46750       -9.22480
C          0.68770       -1.58820       -6.84420
C          2.76760       -3.91510       -6.41130
S          2.99670       -5.62160       -6.15610
C          3.77130       -5.82300       -7.66780
C          3.88150       -4.63630       -8.35450
C          3.33010       -3.52960       -7.62910
C          3.49230       -2.22820       -8.15490
C          4.07640       -2.03510       -9.37050
C          4.25710       -0.66870       -9.95250
C          4.54870       -3.15890      -10.12750
O          5.08290       -2.83000      -11.33960
C          5.58940       -3.86220      -12.14600
C          4.47250       -4.42550       -9.62480
H         -1.29580        3.88250       11.15780
H          0.78970        5.52160       10.33060
H          2.53680        6.89540        9.46310
H          3.39030        6.15440        8.09560
H          2.23440        7.44010        7.80170
H          0.67950        5.35460        4.30670
H          1.85210        4.03800        4.58500
H          2.42120        5.64790        4.07400
H         -0.10470        3.73790        5.77790
H         -4.51010        1.91450        8.41460
H         -7.76150        0.97670        7.65320
H         -7.07370       -0.38310        8.52080
H         -6.68050        1.26990        9.02980
H         -7.06520       -1.06100        3.85530
H         -6.35300       -2.45430        4.71310
H         -8.09510       -2.11290        4.86100
H         -4.79100       -0.77460        4.25570
H         -4.84630        1.18730        2.97470
H         -6.64270        1.80400        0.07120
H         -6.87260        1.58040        1.81550
H         -7.29530        0.29110        0.67010
H         -4.78150       -1.92580       -2.20030
H         -5.86040       -0.81900       -3.08590
H         -4.16570       -0.35640       -2.78480
H         -2.96620       -1.14470       -0.97580
H          0.85260       -2.36010        2.61670
H          4.11600       -3.39680        3.17920
H          2.48900       -3.47910        3.88220
H          3.18190       -4.87350        3.03100
H          5.48000       -3.77420       -0.98240
H          4.53190       -5.28110       -1.10750
H          5.97940       -5.21980       -0.06910
H          3.26770       -3.40430       -1.57850
H         -0.47490        0.04690       -3.52250
H         -2.39600        1.03780       -6.20670
H         -1.69460        1.66230       -4.70080
H         -0.98990        2.08320       -6.27320
H         -0.78920        0.15440       -9.96980
H          0.78950       -0.41020       -9.36400
H         -0.61800       -1.50640       -9.34870
H          0.99240       -2.07770       -7.75340
H          4.10520       -6.79600       -7.96710
H          3.17020       -1.37980       -7.57030
H          3.73330       -0.59460      -10.90490
H          5.31150       -0.48200      -10.14980
H          3.88060        0.09320       -9.27460
H          4.81220       -4.58960      -12.40350
H          6.42200       -4.38100      -11.65930
H          5.94730       -3.38030      -13.05460
H          4.85590       -5.28210      -10.15550
