
  xtb     03042223463D
 energy: -199.023234989490 gnorm: 0.000535654429 xtb: 6.4.1 (unknown)
118133  0     0  0            999 V2000
    4.9057    6.3989   -1.6323 C   0  0  0  0  0  0  0  0  0  0  0  0
    5.3869    5.4311   -2.4639 C   0  0  0  0  0  0  0  0  0  0  0  0
    4.5658    4.2944   -2.4662 C   0  0  0  0  0  0  0  0  0  0  0  0
    3.4609    4.4366   -1.6382 C   0  0  0  0  0  0  0  0  0  0  0  0
    3.4418    5.9507   -0.8268 S   0  0  0  0  0  0  0  0  0  0  0  0
    2.6739    3.2596   -1.7093 C   0  0  0  0  0  0  0  0  0  0  0  0
    3.2972    2.3501   -2.5615 C   0  0  0  0  0  0  0  0  0  0  0  0
    4.5561    2.9453   -3.1225 C   0  0  0  0  0  0  0  0  0  0  0  0
    2.5996    1.1518   -2.6802 C   0  0  0  0  0  0  0  0  0  0  0  0
    1.4338    1.1433   -1.9321 C   0  0  0  0  0  0  0  0  0  0  0  0
    1.1924    2.6634   -1.0900 S   0  0  0  0  0  0  0  0  0  0  0  0
    0.4697    0.1225   -1.7272 C   0  0  0  0  0  0  0  0  0  0  0  0
    0.5404   -1.1407   -2.2116 C   0  0  0  0  0  0  0  0  0  0  0  0
   -0.4244   -2.1477   -1.9520 C   0  0  0  0  0  0  0  0  0  0  0  0
   -1.6476   -2.0459   -1.3115 C   0  0  0  0  0  0  0  0  0  0  0  0
   -2.3072   -3.2648   -1.2324 C   0  0  0  0  0  0  0  0  0  0  0  0
   -1.5898   -4.3162   -1.8046 C   0  0  0  0  0  0  0  0  0  0  0  0
   -0.0956   -3.7962   -2.4635 S   0  0  0  0  0  0  0  0  0  0  0  0
   -2.2981   -5.5240   -1.5911 C   0  0  0  0  0  0  0  0  0  0  0  0
   -3.4677   -5.2397   -0.8943 C   0  0  0  0  0  0  0  0  0  0  0  0
   -3.5941   -3.7671   -0.6510 C   0  0  0  0  0  0  0  0  0  0  0  0
   -4.1423   -6.3887   -0.4837 C   0  0  0  0  0  0  0  0  0  0  0  0
   -3.4970   -7.5446   -0.8574 C   0  0  0  0  0  0  0  0  0  0  0  0
   -2.0666   -7.2148   -1.8174 S   0  0  0  0  0  0  0  0  0  0  0  0
   -3.7404   -8.8447   -0.2497 C   0  0  0  0  0  0  0  0  0  0  0  0
   -3.7120   -8.9377    1.0888 C   0  0  0  0  0  0  0  0  0  0  0  0
   -3.2909   -7.7990    1.8904 C   0  0  0  0  0  0  0  0  0  0  0  0
   -1.7784   -7.0427    1.5222 S   0  0  0  0  0  0  0  0  0  0  0  0
   -2.1544   -5.6008    2.4217 C   0  0  0  0  0  0  0  0  0  0  0  0
   -3.3655   -5.7857    3.1088 C   0  0  0  0  0  0  0  0  0  0  0  0
   -3.9989   -7.0343    2.8036 C   0  0  0  0  0  0  0  0  0  0  0  0
   -5.2636   -7.3297    3.3628 C   0  0  0  0  0  0  0  0  0  0  0  0
   -5.8698   -6.4565    4.2133 C   0  0  0  0  0  0  0  0  0  0  0  0
   -7.2017   -6.7385    4.8312 C   0  0  0  0  0  0  0  0  0  0  0  0
   -5.2138   -5.2282    4.5470 C   0  0  0  0  0  0  0  0  0  0  0  0
   -5.9006   -4.4460    5.4253 O   0  0  0  0  0  0  0  0  0  0  0  0
   -5.3419   -3.2130    5.8050 C   0  0  0  0  0  0  0  0  0  0  0  0
   -3.9963   -4.9040    4.0079 C   0  0  0  0  0  0  0  0  0  0  0  0
   -1.3752   -4.4347    2.2481 C   0  0  0  0  0  0  0  0  0  0  0  0
   -2.0205   -2.8721    2.6732 S   0  0  0  0  0  0  0  0  0  0  0  0
   -0.6622   -2.0132    2.0218 C   0  0  0  0  0  0  0  0  0  0  0  0
    0.2613   -2.9070    1.4796 C   0  0  0  0  0  0  0  0  0  0  0  0
   -0.1352   -4.2728    1.6059 C   0  0  0  0  0  0  0  0  0  0  0  0
    0.7191   -5.2638    1.0797 C   0  0  0  0  0  0  0  0  0  0  0  0
    1.8646   -4.9329    0.4161 C   0  0  0  0  0  0  0  0  0  0  0  0
    2.7595   -5.9727   -0.1763 C   0  0  0  0  0  0  0  0  0  0  0  0
    2.2246   -3.5593    0.2582 C   0  0  0  0  0  0  0  0  0  0  0  0
    3.3786   -3.3472   -0.4339 O   0  0  0  0  0  0  0  0  0  0  0  0
    3.8440   -2.0279   -0.5667 C   0  0  0  0  0  0  0  0  0  0  0  0
    1.4430   -2.5699    0.7878 C   0  0  0  0  0  0  0  0  0  0  0  0
   -0.6024   -0.5955    2.0604 C   0  0  0  0  0  0  0  0  0  0  0  0
    0.5103    0.2118    2.2079 C   0  0  0  0  0  0  0  0  0  0  0  0
    0.2011    1.5671    2.1313 C   0  0  0  0  0  0  0  0  0  0  0  0
   -1.1550    1.8054    1.9249 C   0  0  0  0  0  0  0  0  0  0  0  0
   -2.0704    0.3538    1.8481 S   0  0  0  0  0  0  0  0  0  0  0  0
   -1.3618    3.1981    1.7826 C   0  0  0  0  0  0  0  0  0  0  0  0
   -0.1350    3.8485    1.8772 C   0  0  0  0  0  0  0  0  0  0  0  0
    0.9508    2.8649    2.1998 C   0  0  0  0  0  0  0  0  0  0  0  0
   -0.2327    5.2182    1.6397 C   0  0  0  0  0  0  0  0  0  0  0  0
   -1.5271    5.6201    1.3944 C   0  0  0  0  0  0  0  0  0  0  0  0
   -2.6562    4.2815    1.4688 S   0  0  0  0  0  0  0  0  0  0  0  0
   -1.9898    6.9657    1.1696 C   0  0  0  0  0  0  0  0  0  0  0  0
   -1.4282    7.8341    0.3087 C   0  0  0  0  0  0  0  0  0  0  0  0
   -0.4782    7.5289   -0.7204 C   0  0  0  0  0  0  0  0  0  0  0  0
    0.3505    8.4269   -1.3628 C   0  0  0  0  0  0  0  0  0  0  0  0
    1.0582    7.8472   -2.4141 C   0  0  0  0  0  0  0  0  0  0  0  0
    0.7331    6.5073   -2.6027 C   0  0  0  0  0  0  0  0  0  0  0  0
   -0.3998    5.9351   -1.4497 S   0  0  0  0  0  0  0  0  0  0  0  0
    1.4910    5.9986   -3.6861 C   0  0  0  0  0  0  0  0  0  0  0  0
    2.3232    7.0034   -4.1700 C   0  0  0  0  0  0  0  0  0  0  0  0
    2.1007    8.2754   -3.4052 C   0  0  0  0  0  0  0  0  0  0  0  0
    3.1385    6.5686   -5.2133 C   0  0  0  0  0  0  0  0  0  0  0  0
    2.9244    5.2440   -5.5342 C   0  0  0  0  0  0  0  0  0  0  0  0
    1.6740    4.5238   -4.5403 S   0  0  0  0  0  0  0  0  0  0  0  0
    3.6147    4.4795   -6.5307 C   0  0  0  0  0  0  0  0  0  0  0  0
    3.4165    3.1850   -6.7770 C   0  0  0  0  0  0  0  0  0  0  0  0
    5.3288    7.3621   -1.4271 H   0  0  0  0  0  0  0  0  0  0  0  0
    6.2863    5.5408   -3.0428 H   0  0  0  0  0  0  0  0  0  0  0  0
    5.4408    2.3597   -2.8631 H   0  0  0  0  0  0  0  0  0  0  0  0
    4.5132    3.0209   -4.2117 H   0  0  0  0  0  0  0  0  0  0  0  0
    2.9152    0.3211   -3.2852 H   0  0  0  0  0  0  0  0  0  0  0  0
   -0.3664    0.3991   -1.1004 H   0  0  0  0  0  0  0  0  0  0  0  0
    1.3811   -1.4379   -2.8236 H   0  0  0  0  0  0  0  0  0  0  0  0
   -2.0352   -1.1211   -0.9251 H   0  0  0  0  0  0  0  0  0  0  0  0
   -4.4608   -3.3401   -1.1607 H   0  0  0  0  0  0  0  0  0  0  0  0
   -3.6878   -3.5347    0.4119 H   0  0  0  0  0  0  0  0  0  0  0  0
   -5.0440   -6.3944    0.1029 H   0  0  0  0  0  0  0  0  0  0  0  0
   -3.9397   -9.7019   -0.8764 H   0  0  0  0  0  0  0  0  0  0  0  0
   -3.9880   -9.8536    1.5939 H   0  0  0  0  0  0  0  0  0  0  0  0
   -5.7374   -8.2666    3.1096 H   0  0  0  0  0  0  0  0  0  0  0  0
   -7.9084   -5.9523    4.5703 H   0  0  0  0  0  0  0  0  0  0  0  0
   -7.1149   -6.7475    5.9166 H   0  0  0  0  0  0  0  0  0  0  0  0
   -7.5894   -7.6962    4.4946 H   0  0  0  0  0  0  0  0  0  0  0  0
   -6.0625   -2.7600    6.4841 H   0  0  0  0  0  0  0  0  0  0  0  0
   -4.3882   -3.3472    6.3257 H   0  0  0  0  0  0  0  0  0  0  0  0
   -5.1919   -2.5562    4.9421 H   0  0  0  0  0  0  0  0  0  0  0  0
   -3.4977   -3.9893    4.2786 H   0  0  0  0  0  0  0  0  0  0  0  0
    0.4728   -6.3058    1.2003 H   0  0  0  0  0  0  0  0  0  0  0  0
    3.7696   -5.8684    0.2167 H   0  0  0  0  0  0  0  0  0  0  0  0
    2.3882   -6.9706    0.0397 H   0  0  0  0  0  0  0  0  0  0  0  0
    2.8150   -5.8378   -1.2556 H   0  0  0  0  0  0  0  0  0  0  0  0
    4.0563   -1.5790    0.4097 H   0  0  0  0  0  0  0  0  0  0  0  0
    3.1298   -1.3949   -1.1019 H   0  0  0  0  0  0  0  0  0  0  0  0
    4.7681   -2.0971   -1.1390 H   0  0  0  0  0  0  0  0  0  0  0  0
    1.6826   -1.5287    0.6579 H   0  0  0  0  0  0  0  0  0  0  0  0
    1.4911   -0.1813    2.4036 H   0  0  0  0  0  0  0  0  0  0  0  0
    1.7860    2.9112    1.5016 H   0  0  0  0  0  0  0  0  0  0  0  0
    1.3471    3.0368    3.2043 H   0  0  0  0  0  0  0  0  0  0  0  0
    0.5930    5.9075    1.6496 H   0  0  0  0  0  0  0  0  0  0  0  0
   -2.8325    7.2887    1.7676 H   0  0  0  0  0  0  0  0  0  0  0  0
   -1.7525    8.8673    0.3289 H   0  0  0  0  0  0  0  0  0  0  0  0
    0.4373    9.4544   -1.0562 H   0  0  0  0  0  0  0  0  0  0  0  0
    1.7456    9.0802   -4.0528 H   0  0  0  0  0  0  0  0  0  0  0  0
    3.0111    8.6210   -2.9113 H   0  0  0  0  0  0  0  0  0  0  0  0
    3.8662    7.1782   -5.7192 H   0  0  0  0  0  0  0  0  0  0  0  0
    4.3540    5.0352   -7.0947 H   0  0  0  0  0  0  0  0  0  0  0  0
    2.6844    2.6149   -6.2280 H   0  0  0  0  0  0  0  0  0  0  0  0
    3.9705    2.6622   -7.5363 H   0  0  0  0  0  0  0  0  0  0  0  0
  1  2  2  0  0  0  0
  2  3  1  0  0  0  0
  3  4  2  0  0  0  0
  4  5  1  0  0  0  0
  4  6  1  0  0  0  0
  6  7  2  0  0  0  0
  7  8  1  0  0  0  0
  7  9  1  0  0  0  0
  9 10  2  0  0  0  0
 10 11  1  0  0  0  0
 10 12  1  0  0  0  0
 12 13  2  0  0  0  0
 13 14  1  0  0  0  0
 14 15  2  0  0  0  0
 15 16  1  0  0  0  0
 16 17  2  0  0  0  0
 17 18  1  0  0  0  0
 17 19  1  0  0  0  0
 19 20  2  0  0  0  0
 20 21  1  0  0  0  0
 20 22  1  0  0  0  0
 22 23  2  0  0  0  0
 23 24  1  0  0  0  0
 23 25  1  0  0  0  0
 25 26  2  0  0  0  0
 26 27  1  0  0  0  0
 27 28  1  0  0  0  0
 28 29  1  0  0  0  0
 29 30  2  0  0  0  0
 30 31  1  0  0  0  0
 31 32  1  0  0  0  0
 32 33  2  0  0  0  0
 33 34  1  0  0  0  0
 33 35  1  0  0  0  0
 35 36  1  0  0  0  0
 36 37  1  0  0  0  0
 35 38  2  0  0  0  0
 29 39  1  0  0  0  0
 39 40  1  0  0  0  0
 40 41  1  0  0  0  0
 41 42  2  0  0  0  0
 42 43  1  0  0  0  0
 43 44  1  0  0  0  0
 44 45  2  0  0  0  0
 45 46  1  0  0  0  0
 45 47  1  0  0  0  0
 47 48  1  0  0  0  0
 48 49  1  0  0  0  0
 47 50  2  0  0  0  0
 41 51  1  0  0  0  0
 51 52  2  0  0  0  0
 52 53  1  0  0  0  0
 53 54  2  0  0  0  0
 54 55  1  0  0  0  0
 54 56  1  0  0  0  0
 56 57  2  0  0  0  0
 57 58  1  0  0  0  0
 57 59  1  0  0  0  0
 59 60  2  0  0  0  0
 60 61  1  0  0  0  0
 60 62  1  0  0  0  0
 62 63  2  0  0  0  0
 63 64  1  0  0  0  0
 64 65  2  0  0  0  0
 65 66  1  0  0  0  0
 66 67  2  0  0  0  0
 67 68  1  0  0  0  0
 67 69  1  0  0  0  0
 69 70  2  0  0  0  0
 70 71  1  0  0  0  0
 70 72  1  0  0  0  0
 72 73  2  0  0  0  0
 73 74  1  0  0  0  0
 73 75  1  0  0  0  0
 75 76  2  0  0  0  0
  5  1  1  0  0  0  0
 11  6  1  0  0  0  0
 18 14  1  0  0  0  0
 24 19  1  0  0  0  0
 31 27  2  0  0  0  0
 43 39  2  0  0  0  0
 55 51  1  0  0  0  0
 61 56  1  0  0  0  0
 68 64  1  0  0  0  0
 74 69  1  0  0  0  0
  8  3  1  0  0  0  0
 21 16  1  0  0  0  0
 38 30  1  0  0  0  0
 50 42  1  0  0  0  0
 58 53  1  0  0  0  0
 71 66  1  0  0  0  0
  1 77  1  0  0  0  0
  2 78  1  0  0  0  0
  8 79  1  0  0  0  0
  8 80  1  0  0  0  0
  9 81  1  0  0  0  0
 12 82  1  0  0  0  0
 13 83  1  0  0  0  0
 15 84  1  0  0  0  0
 21 85  1  0  0  0  0
 21 86  1  0  0  0  0
 22 87  1  0  0  0  0
 25 88  1  0  0  0  0
 26 89  1  0  0  0  0
 32 90  1  0  0  0  0
 34 91  1  0  0  0  0
 34 92  1  0  0  0  0
 34 93  1  0  0  0  0
 37 94  1  0  0  0  0
 37 95  1  0  0  0  0
 37 96  1  0  0  0  0
 38 97  1  0  0  0  0
 44 98  1  0  0  0  0
 46 99  1  0  0  0  0
 46100  1  0  0  0  0
 46101  1  0  0  0  0
 49102  1  0  0  0  0
 49103  1  0  0  0  0
 49104  1  0  0  0  0
 50105  1  0  0  0  0
 52106  1  0  0  0  0
 58107  1  0  0  0  0
 58108  1  0  0  0  0
 59109  1  0  0  0  0
 62110  1  0  0  0  0
 63111  1  0  0  0  0
 65112  1  0  0  0  0
 71113  1  0  0  0  0
 71114  1  0  0  0  0
 72115  1  0  0  0  0
 75116  1  0  0  0  0
 76117  1  0  0  0  0
 76118  1  0  0  0  0
M  END
