97

C         -2.40790       -4.34970        9.36220
S         -3.61430       -3.91270        8.24850
C         -2.48440       -3.12740        7.18080
C         -1.18530       -3.21790        7.71370
C         -1.15800       -3.92330        8.96790
C          0.06000       -4.11880        9.65400
C          1.22060       -3.62540        9.11900
C          2.45450       -3.82070        9.78390
N          3.44430       -3.99140       10.33430
C          1.19530       -2.89850        7.88610
C          2.40340       -2.39060        7.35630
N          3.37000       -1.97490        6.90270
C          0.01680       -2.69650        7.20650
C         -2.90580       -2.58200        5.94460
S         -1.77200       -2.33440        4.65110
C         -2.99060       -1.82350        3.53040
C         -4.24400       -1.78440        4.15630
C         -4.20060       -2.22590        5.52110
C         -5.37880       -2.18580        6.28700
C         -6.54810       -1.72060        5.73300
C         -7.72560       -1.67630        6.51510
N         -8.66800       -1.65090        7.16570
C         -6.57760       -1.24550        4.38720
C         -7.77780       -0.71850        3.85610
N         -8.73900       -0.28370        3.41010
C         -5.43810       -1.27020        3.62060
C         -2.62270       -1.47160        2.20950
S         -1.10640       -0.67410        1.91910
C         -1.38010       -0.56480        0.20720
C         -2.62380       -1.12480       -0.12780
C         -3.30770       -1.67890        1.00440
C         -4.49500       -2.40810        0.80660
C         -5.05170       -2.47750       -0.44770
C         -6.22820       -3.23360       -0.65790
N         -7.17570       -3.85930       -0.80880
C         -4.45320       -1.78280       -1.54400
C         -5.07930       -1.79990       -2.81130
N         -5.55930       -1.81190       -3.85150
C         -3.25710       -1.12390       -1.38260
C         -0.42090        0.06930       -0.61200
S          0.49850        1.38290        0.05050
C          1.31750        1.70470       -1.45260
C          0.92380        0.75510       -2.42540
C         -0.03770       -0.17890       -1.93820
C         -0.42030       -1.26560       -2.75070
C          0.04560       -1.38760       -4.02780
C         -0.35120       -2.51920       -4.91480
C          0.95850       -0.41250       -4.53730
O          1.34880       -0.61500       -5.81050
C          2.23830        0.29680       -6.41540
C          1.40350        0.61600       -3.73750
C          2.16920        2.81470       -1.58490
S          2.58180        3.42650       -3.15700
C          3.50580        4.76610       -2.54460
C          3.51270        4.72700       -1.13800
C          2.76140        3.63160       -0.59500
C          2.71500        3.45190        0.79480
C          3.36610        4.33010        1.63160
C          3.29480        4.15090        3.03190
N          3.21290        3.99670        4.16420
C          4.11880        5.41220        1.09170
C          4.80550        6.29290        1.95940
N          5.36860        7.01860        2.64400
C          4.19500        5.59470       -0.26910
C          4.06130        5.71360       -3.43250
S          4.49780        7.31580       -2.90580
C          4.93340        7.81890       -4.47260
C          4.76880        6.81770       -5.40420
C          4.27340        5.59880       -4.82020
C          4.10480        4.47810       -5.64590
C          4.36080        4.56500       -6.99550
C          4.15680        3.41780       -7.79190
N          3.96100        2.45420       -8.38200
C          4.81620        5.78980       -7.57840
C          5.05840        5.84390       -8.97110
N          5.25410        5.89810      -10.09840
C          5.02800        6.89100       -6.79070
H         -2.66850       -4.89280       10.24830
H          0.06720       -4.65390       10.59130
H          0.03660       -2.12560        6.29190
H         -5.37830       -2.48840        7.32130
H         -5.45590       -0.86410        2.62100
H         -4.95810       -2.93060        1.62960
H         -2.81510       -0.60170       -2.21650
H         -1.06610       -2.02820       -2.34420
H          0.53260       -3.05980       -5.24910
H         -0.84660       -2.13410       -5.80460
H         -1.02080       -3.20290       -4.40100
H          2.36490       -0.04300       -7.44070
H          3.21190        0.29890       -5.91710
H          1.82920        1.31100       -6.42380
H          2.14600        1.29780       -4.11010
H          2.18580        2.61960        1.22910
H          4.79880        6.39950       -0.65530
H          5.28820        8.81690       -4.63300
H          3.78930        3.53020       -5.24160
H          5.39080        7.81300       -7.21880
