
  xtb     03042208583D
 energy: -206.751659337804 gnorm: 0.000631120465 xtb: 6.4.1 (unknown)
118129  0     0  0            999 V2000
    6.2102   -0.7156   -1.8846 C   0  0  0  0  0  0  0  0  0  0  0  0
    5.0265   -1.5558   -2.7818 S   0  0  0  0  0  0  0  0  0  0  0  0
    4.7896   -0.2376   -3.8726 C   0  0  0  0  0  0  0  0  0  0  0  0
    5.6362    0.8209   -3.5355 C   0  0  0  0  0  0  0  0  0  0  0  0
    6.4414    0.5481   -2.3768 C   0  0  0  0  0  0  0  0  0  0  0  0
    7.3289    1.5488   -1.8959 C   0  0  0  0  0  0  0  0  0  0  0  0
    8.3489    1.2868   -0.4705 S   0  0  0  0  0  0  0  0  0  0  0  0
    7.4186    2.7410   -2.5551 C   0  0  0  0  0  0  0  0  0  0  0  0
    6.6181    3.0131   -3.6784 C   0  0  0  0  0  0  0  0  0  0  0  0
    5.7276    2.0918   -4.1589 C   0  0  0  0  0  0  0  0  0  0  0  0
    4.9038    2.3702   -5.2181 O   0  0  0  0  0  0  0  0  0  0  0  0
    3.9584   -0.3028   -5.0352 C   0  0  0  0  0  0  0  0  0  0  0  0
    2.6926   -0.7680   -5.1973 C   0  0  0  0  0  0  0  0  0  0  0  0
    1.7296   -1.1832   -4.2505 C   0  0  0  0  0  0  0  0  0  0  0  0
    2.0416   -1.3926   -2.5653 S   0  0  0  0  0  0  0  0  0  0  0  0
    0.3756   -1.6814   -2.1623 C   0  0  0  0  0  0  0  0  0  0  0  0
   -0.4151   -1.6007   -3.3310 C   0  0  0  0  0  0  0  0  0  0  0  0
    0.3548   -1.3452   -4.5024 C   0  0  0  0  0  0  0  0  0  0  0  0
   -0.2967   -1.2415   -5.7463 C   0  0  0  0  0  0  0  0  0  0  0  0
   -1.6509   -1.3767   -5.8485 C   0  0  0  0  0  0  0  0  0  0  0  0
   -2.3684   -1.2628   -7.1546 C   0  0  0  0  0  0  0  0  0  0  0  0
   -2.4172   -1.6338   -4.6744 C   0  0  0  0  0  0  0  0  0  0  0  0
   -3.7522   -1.7577   -4.8838 O   0  0  0  0  0  0  0  0  0  0  0  0
   -4.5949   -1.9477   -3.7725 C   0  0  0  0  0  0  0  0  0  0  0  0
   -1.8081   -1.7459   -3.4492 C   0  0  0  0  0  0  0  0  0  0  0  0
    0.0029   -1.9409   -0.8305 C   0  0  0  0  0  0  0  0  0  0  0  0
   -1.6742   -1.9912   -0.3747 S   0  0  0  0  0  0  0  0  0  0  0  0
   -1.3309   -2.2837    1.3043 C   0  0  0  0  0  0  0  0  0  0  0  0
    0.0460   -2.4314    1.4910 C   0  0  0  0  0  0  0  0  0  0  0  0
    0.8047   -2.1947    0.3051 C   0  0  0  0  0  0  0  0  0  0  0  0
    2.2075   -2.2703    0.3995 C   0  0  0  0  0  0  0  0  0  0  0  0
    2.8254   -2.5902    1.5758 C   0  0  0  0  0  0  0  0  0  0  0  0
    4.3153   -2.6584    1.6790 C   0  0  0  0  0  0  0  0  0  0  0  0
    2.0493   -2.8907    2.7339 C   0  0  0  0  0  0  0  0  0  0  0  0
    2.7705   -3.2393    3.8320 O   0  0  0  0  0  0  0  0  0  0  0  0
    2.0781   -3.4761    5.0333 C   0  0  0  0  0  0  0  0  0  0  0  0
    0.6816   -2.8221    2.6856 C   0  0  0  0  0  0  0  0  0  0  0  0
   -2.4396   -2.3773    2.1863 C   0  0  0  0  0  0  0  0  0  0  0  0
   -3.8720   -3.1172    1.5145 S   0  0  0  0  0  0  0  0  0  0  0  0
   -4.8157   -2.7834    2.9179 C   0  0  0  0  0  0  0  0  0  0  0  0
   -4.0233   -2.2247    3.9141 C   0  0  0  0  0  0  0  0  0  0  0  0
   -2.6802   -1.9228    3.4867 C   0  0  0  0  0  0  0  0  0  0  0  0
   -1.8987   -1.1128    4.3544 C   0  0  0  0  0  0  0  0  0  0  0  0
   -0.3935   -0.3011    3.8850 S   0  0  0  0  0  0  0  0  0  0  0  0
   -2.3396   -0.8588    5.6275 C   0  0  0  0  0  0  0  0  0  0  0  0
   -3.5688   -1.3318    6.1012 C   0  0  0  0  0  0  0  0  0  0  0  0
   -4.4343   -1.9689    5.2534 C   0  0  0  0  0  0  0  0  0  0  0  0
   -5.6430   -2.3672    5.7209 O   0  0  0  0  0  0  0  0  0  0  0  0
   -6.2754   -2.6744    2.8139 C   0  0  0  0  0  0  0  0  0  0  0  0
   -6.8135   -1.4569    2.6643 C   0  0  0  0  0  0  0  0  0  0  0  0
   -5.9270   -0.2912    2.5905 C   0  0  0  0  0  0  0  0  0  0  0  0
   -4.9270   -0.0948    1.1959 S   0  0  0  0  0  0  0  0  0  0  0  0
   -3.8400    0.9884    2.0066 C   0  0  0  0  0  0  0  0  0  0  0  0
   -4.3032    1.2520    3.3000 C   0  0  0  0  0  0  0  0  0  0  0  0
   -5.5107    0.5420    3.6153 C   0  0  0  0  0  0  0  0  0  0  0  0
   -6.1155    0.7038    4.8902 C   0  0  0  0  0  0  0  0  0  0  0  0
   -7.6684   -0.0802    5.2006 S   0  0  0  0  0  0  0  0  0  0  0  0
   -5.5039    1.4942    5.8202 C   0  0  0  0  0  0  0  0  0  0  0  0
   -4.2974    2.1528    5.5291 C   0  0  0  0  0  0  0  0  0  0  0  0
   -3.7000    2.0592    4.2986 C   0  0  0  0  0  0  0  0  0  0  0  0
   -2.5493    2.7181    4.0020 O   0  0  0  0  0  0  0  0  0  0  0  0
   -2.6268    1.3836    1.3961 C   0  0  0  0  0  0  0  0  0  0  0  0
   -2.3072    1.1469    0.0983 C   0  0  0  0  0  0  0  0  0  0  0  0
   -1.0217    1.3824   -0.4587 C   0  0  0  0  0  0  0  0  0  0  0  0
    0.3552    1.3697    0.5974 S   0  0  0  0  0  0  0  0  0  0  0  0
    1.4849    1.6088   -0.6841 C   0  0  0  0  0  0  0  0  0  0  0  0
    0.8201    1.7064   -1.9057 C   0  0  0  0  0  0  0  0  0  0  0  0
   -0.6095    1.5604   -1.7847 C   0  0  0  0  0  0  0  0  0  0  0  0
   -1.4002    1.6319   -2.9586 C   0  0  0  0  0  0  0  0  0  0  0  0
   -3.1779    1.5204   -2.9546 S   0  0  0  0  0  0  0  0  0  0  0  0
   -0.8024    1.7626   -4.1813 C   0  0  0  0  0  0  0  0  0  0  0  0
    0.5890    1.8608   -4.3041 C   0  0  0  0  0  0  0  0  0  0  0  0
    1.4012    1.8478   -3.2003 C   0  0  0  0  0  0  0  0  0  0  0  0
    2.7413    1.9645   -3.2974 O   0  0  0  0  0  0  0  0  0  0  0  0
    2.8717    1.6334   -0.2827 C   0  0  0  0  0  0  0  0  0  0  0  0
    3.8521    2.3829   -0.7756 C   0  0  0  0  0  0  0  0  0  0  0  0
    6.6839   -1.2140   -1.0621 H   0  0  0  0  0  0  0  0  0  0  0  0
    7.5802    0.3601    0.0959 H   0  0  0  0  0  0  0  0  0  0  0  0
    8.0995    3.4982   -2.1992 H   0  0  0  0  0  0  0  0  0  0  0  0
    6.6997    3.9817   -4.1525 H   0  0  0  0  0  0  0  0  0  0  0  0
    5.0883    3.2667   -5.5252 H   0  0  0  0  0  0  0  0  0  0  0  0
    4.4150    0.1445   -5.9100 H   0  0  0  0  0  0  0  0  0  0  0  0
    2.3055   -0.7175   -6.2073 H   0  0  0  0  0  0  0  0  0  0  0  0
    0.2819   -1.0516   -6.6378 H   0  0  0  0  0  0  0  0  0  0  0  0
   -1.6755   -1.0440   -7.9628 H   0  0  0  0  0  0  0  0  0  0  0  0
   -3.1186   -0.4756   -7.0978 H   0  0  0  0  0  0  0  0  0  0  0  0
   -2.8930   -2.1916   -7.3733 H   0  0  0  0  0  0  0  0  0  0  0  0
   -4.3756   -2.8880   -3.2563 H   0  0  0  0  0  0  0  0  0  0  0  0
   -4.5149   -1.1168   -3.0657 H   0  0  0  0  0  0  0  0  0  0  0  0
   -5.6060   -1.9838   -4.1747 H   0  0  0  0  0  0  0  0  0  0  0  0
   -2.4009   -1.9430   -2.5755 H   0  0  0  0  0  0  0  0  0  0  0  0
    2.8214   -2.0822   -0.4646 H   0  0  0  0  0  0  0  0  0  0  0  0
    4.6237   -3.6537    1.9949 H   0  0  0  0  0  0  0  0  0  0  0  0
    4.6687   -1.9564    2.4331 H   0  0  0  0  0  0  0  0  0  0  0  0
    4.7765   -2.4257    0.7228 H   0  0  0  0  0  0  0  0  0  0  0  0
    2.8439   -3.6683    5.7831 H   0  0  0  0  0  0  0  0  0  0  0  0
    1.4864   -2.6049    5.3305 H   0  0  0  0  0  0  0  0  0  0  0  0
    1.4228   -4.3497    4.9538 H   0  0  0  0  0  0  0  0  0  0  0  0
    0.0659   -3.0718    3.5335 H   0  0  0  0  0  0  0  0  0  0  0  0
   -0.6564   -0.2328    2.5849 H   0  0  0  0  0  0  0  0  0  0  0  0
   -1.7218   -0.2588    6.2777 H   0  0  0  0  0  0  0  0  0  0  0  0
   -3.8677   -1.1487    7.1199 H   0  0  0  0  0  0  0  0  0  0  0  0
   -6.1852   -2.7130    4.9978 H   0  0  0  0  0  0  0  0  0  0  0  0
   -6.8842   -3.5688    2.7967 H   0  0  0  0  0  0  0  0  0  0  0  0
   -7.8827   -1.3181    2.5879 H   0  0  0  0  0  0  0  0  0  0  0  0
   -7.7162    0.2303    6.4937 H   0  0  0  0  0  0  0  0  0  0  0  0
   -5.9431    1.6272    6.7979 H   0  0  0  0  0  0  0  0  0  0  0  0
   -3.8407    2.7592    6.2993 H   0  0  0  0  0  0  0  0  0  0  0  0
   -2.2342    3.1875    4.7843 H   0  0  0  0  0  0  0  0  0  0  0  0
   -1.9214    1.8928    2.0375 H   0  0  0  0  0  0  0  0  0  0  0  0
   -3.0569    0.7169   -0.5521 H   0  0  0  0  0  0  0  0  0  0  0  0
   -3.3863    2.4426   -2.0131 H   0  0  0  0  0  0  0  0  0  0  0  0
   -1.4150    1.7940   -5.0685 H   0  0  0  0  0  0  0  0  0  0  0  0
    1.0286    1.9557   -5.2868 H   0  0  0  0  0  0  0  0  0  0  0  0
    3.0285    1.9574   -4.2243 H   0  0  0  0  0  0  0  0  0  0  0  0
    3.0733    1.0008    0.5756 H   0  0  0  0  0  0  0  0  0  0  0  0
    4.8473    2.3228   -0.3706 H   0  0  0  0  0  0  0  0  0  0  0  0
    3.7052    3.0674   -1.5893 H   0  0  0  0  0  0  0  0  0  0  0  0
  1  2  1  0  0  0  0
  2  3  1  0  0  0  0
  3  4  2  0  0  0  0
  4  5  1  0  0  0  0
  5  6  1  0  0  0  0
  6  7  1  0  0  0  0
  6  8  2  0  0  0  0
  8  9  1  0  0  0  0
  9 10  2  0  0  0  0
 10 11  1  0  0  0  0
  3 12  1  0  0  0  0
 12 13  2  0  0  0  0
 13 14  1  0  0  0  0
 14 15  1  0  0  0  0
 15 16  1  0  0  0  0
 16 17  2  0  0  0  0
 17 18  1  0  0  0  0
 18 19  1  0  0  0  0
 19 20  2  0  0  0  0
 20 21  1  0  0  0  0
 20 22  1  0  0  0  0
 22 23  1  0  0  0  0
 23 24  1  0  0  0  0
 22 25  2  0  0  0  0
 16 26  1  0  0  0  0
 26 27  1  0  0  0  0
 27 28  1  0  0  0  0
 28 29  2  0  0  0  0
 29 30  1  0  0  0  0
 30 31  1  0  0  0  0
 31 32  2  0  0  0  0
 32 33  1  0  0  0  0
 32 34  1  0  0  0  0
 34 35  1  0  0  0  0
 35 36  1  0  0  0  0
 34 37  2  0  0  0  0
 28 38  1  0  0  0  0
 38 39  1  0  0  0  0
 39 40  1  0  0  0  0
 40 41  2  0  0  0  0
 41 42  1  0  0  0  0
 42 43  1  0  0  0  0
 43 44  1  0  0  0  0
 43 45  2  0  0  0  0
 45 46  1  0  0  0  0
 46 47  2  0  0  0  0
 47 48  1  0  0  0  0
 40 49  1  0  0  0  0
 49 50  2  0  0  0  0
 50 51  1  0  0  0  0
 51 52  1  0  0  0  0
 52 53  1  0  0  0  0
 53 54  2  0  0  0  0
 54 55  1  0  0  0  0
 55 56  1  0  0  0  0
 56 57  1  0  0  0  0
 56 58  2  0  0  0  0
 58 59  1  0  0  0  0
 59 60  2  0  0  0  0
 60 61  1  0  0  0  0
 53 62  1  0  0  0  0
 62 63  2  0  0  0  0
 63 64  1  0  0  0  0
 64 65  1  0  0  0  0
 65 66  1  0  0  0  0
 66 67  2  0  0  0  0
 67 68  1  0  0  0  0
 68 69  1  0  0  0  0
 69 70  1  0  0  0  0
 69 71  2  0  0  0  0
 71 72  1  0  0  0  0
 72 73  2  0  0  0  0
 73 74  1  0  0  0  0
 66 75  1  0  0  0  0
 75 76  2  0  0  0  0
  5  1  2  0  0  0  0
 18 14  2  0  0  0  0
 30 26  2  0  0  0  0
 42 38  2  0  0  0  0
 55 51  2  0  0  0  0
 68 64  2  0  0  0  0
 10  4  1  0  0  0  0
 25 17  1  0  0  0  0
 37 29  1  0  0  0  0
 47 41  1  0  0  0  0
 60 54  1  0  0  0  0
 73 67  1  0  0  0  0
  1 77  1  0  0  0  0
  7 78  1  0  0  0  0
  8 79  1  0  0  0  0
  9 80  1  0  0  0  0
 11 81  1  0  0  0  0
 12 82  1  0  0  0  0
 13 83  1  0  0  0  0
 19 84  1  0  0  0  0
 21 85  1  0  0  0  0
 21 86  1  0  0  0  0
 21 87  1  0  0  0  0
 24 88  1  0  0  0  0
 24 89  1  0  0  0  0
 24 90  1  0  0  0  0
 25 91  1  0  0  0  0
 31 92  1  0  0  0  0
 33 93  1  0  0  0  0
 33 94  1  0  0  0  0
 33 95  1  0  0  0  0
 36 96  1  0  0  0  0
 36 97  1  0  0  0  0
 36 98  1  0  0  0  0
 37 99  1  0  0  0  0
 44100  1  0  0  0  0
 45101  1  0  0  0  0
 46102  1  0  0  0  0
 48103  1  0  0  0  0
 49104  1  0  0  0  0
 50105  1  0  0  0  0
 57106  1  0  0  0  0
 58107  1  0  0  0  0
 59108  1  0  0  0  0
 61109  1  0  0  0  0
 62110  1  0  0  0  0
 63111  1  0  0  0  0
 70112  1  0  0  0  0
 71113  1  0  0  0  0
 72114  1  0  0  0  0
 74115  1  0  0  0  0
 75116  1  0  0  0  0
 76117  1  0  0  0  0
 76118  1  0  0  0  0
M  END
