
  xtb     03042201013D
 energy: -416.051211082648 gnorm: 0.000383273790 xtb: 6.4.1 (unknown)
242265  0     0  0            999 V2000
   -2.2652   -6.7637   17.2774 C   0  0  0  0  0  0  0  0  0  0  0  0
   -2.9728   -6.4899   16.1635 C   0  0  0  0  0  0  0  0  0  0  0  0
   -2.3945   -5.4477   15.3785 C   0  0  0  0  0  0  0  0  0  0  0  0
   -2.8534   -4.9189   14.1628 C   0  0  0  0  0  0  0  0  0  0  0  0
   -4.0324   -5.4686   13.4813 C   0  0  0  0  0  0  0  0  0  0  0  0
   -4.1365   -6.8351   13.2248 C   0  0  0  0  0  0  0  0  0  0  0  0
   -5.2437   -7.3458   12.5835 C   0  0  0  0  0  0  0  0  0  0  0  0
   -6.2882   -6.5215   12.1653 C   0  0  0  0  0  0  0  0  0  0  0  0
   -7.6258   -7.3058   11.3168 S   0  0  0  0  0  0  0  0  0  0  0  0
   -9.1167   -6.3686   11.8181 C   0  0  0  0  0  0  0  0  0  0  0  0
   -9.3157   -6.3737   13.3203 C   0  0  0  0  0  0  0  0  0  0  0  0
   -6.1550   -5.1566   12.4003 C   0  0  0  0  0  0  0  0  0  0  0  0
   -7.1053   -4.2841   11.9971 F   0  0  0  0  0  0  0  0  0  0  0  0
   -5.0583   -4.6331   13.0552 C   0  0  0  0  0  0  0  0  0  0  0  0
   -2.1250   -3.8681   13.6254 C   0  0  0  0  0  0  0  0  0  0  0  0
   -0.9471   -3.3569   14.2241 C   0  0  0  0  0  0  0  0  0  0  0  0
   -0.4691   -3.9090   15.4231 C   0  0  0  0  0  0  0  0  0  0  0  0
    0.7794   -3.4393   16.0363 C   0  0  0  0  0  0  0  0  0  0  0  0
    1.9557   -3.3670   15.2910 C   0  0  0  0  0  0  0  0  0  0  0  0
    3.1318   -2.9470   15.8742 C   0  0  0  0  0  0  0  0  0  0  0  0
    3.1812   -2.5705   17.2145 C   0  0  0  0  0  0  0  0  0  0  0  0
    4.7327   -2.0003   17.8480 S   0  0  0  0  0  0  0  0  0  0  0  0
    4.8442   -2.7980   19.4922 C   0  0  0  0  0  0  0  0  0  0  0  0
    4.7549   -4.3076   19.3957 C   0  0  0  0  0  0  0  0  0  0  0  0
    1.9948   -2.6240   17.9395 C   0  0  0  0  0  0  0  0  0  0  0  0
    0.8153   -3.0658   17.3754 C   0  0  0  0  0  0  0  0  0  0  0  0
    1.9576   -2.2323   19.2320 F   0  0  0  0  0  0  0  0  0  0  0  0
   -1.2236   -4.9304   15.9820 C   0  0  0  0  0  0  0  0  0  0  0  0
   -0.8543   -5.7779   17.4630 S   0  0  0  0  0  0  0  0  0  0  0  0
   -0.3927   -2.2859   13.4785 C   0  0  0  0  0  0  0  0  0  0  0  0
   -1.0855   -1.9916   12.3397 C   0  0  0  0  0  0  0  0  0  0  0  0
   -2.4781   -3.0433   12.1307 S   0  0  0  0  0  0  0  0  0  0  0  0
   -0.7891   -1.0159   11.3447 C   0  0  0  0  0  0  0  0  0  0  0  0
   -1.2907   -1.2803    9.7138 S   0  0  0  0  0  0  0  0  0  0  0  0
   -0.5258    0.1674    9.1476 C   0  0  0  0  0  0  0  0  0  0  0  0
    0.0974    0.8436   10.2033 C   0  0  0  0  0  0  0  0  0  0  0  0
   -0.0721    0.1778   11.4577 C   0  0  0  0  0  0  0  0  0  0  0  0
    0.4378    0.7793   12.6293 C   0  0  0  0  0  0  0  0  0  0  0  0
    1.1439    1.9429   12.5696 C   0  0  0  0  0  0  0  0  0  0  0  0
    1.6939    2.6025   13.7921 C   0  0  0  0  0  0  0  0  0  0  0  0
    1.3864    2.5575   11.2998 C   0  0  0  0  0  0  0  0  0  0  0  0
    2.1358    3.6886   11.3569 O   0  0  0  0  0  0  0  0  0  0  0  0
    2.4168    4.3724   10.1606 C   0  0  0  0  0  0  0  0  0  0  0  0
    0.8683    2.0236   10.1495 C   0  0  0  0  0  0  0  0  0  0  0  0
   -0.5691    0.4667    7.7580 C   0  0  0  0  0  0  0  0  0  0  0  0
   -0.3508    1.6496    7.1070 C   0  0  0  0  0  0  0  0  0  0  0  0
   -0.4119    1.5521    5.6955 C   0  0  0  0  0  0  0  0  0  0  0  0
   -0.1706    2.5635    4.7479 C   0  0  0  0  0  0  0  0  0  0  0  0
    0.2650    3.9051    5.1539 C   0  0  0  0  0  0  0  0  0  0  0  0
   -0.3544    5.0501    4.6572 C   0  0  0  0  0  0  0  0  0  0  0  0
    0.0672    6.3033    5.0490 C   0  0  0  0  0  0  0  0  0  0  0  0
    1.1291    6.4664    5.9350 C   0  0  0  0  0  0  0  0  0  0  0  0
    1.6261    8.1173    6.3414 S   0  0  0  0  0  0  0  0  0  0  0  0
    1.8418    8.0431    8.1589 C   0  0  0  0  0  0  0  0  0  0  0  0
    0.5525    7.6658    8.8611 C   0  0  0  0  0  0  0  0  0  0  0  0
    1.7635    5.3159    6.3925 C   0  0  0  0  0  0  0  0  0  0  0  0
    2.8368    5.3963    7.2145 F   0  0  0  0  0  0  0  0  0  0  0  0
    1.3367    4.0553    6.0299 C   0  0  0  0  0  0  0  0  0  0  0  0
   -0.3170    2.2166    3.4130 C   0  0  0  0  0  0  0  0  0  0  0  0
   -0.6590    0.9068    2.9997 C   0  0  0  0  0  0  0  0  0  0  0  0
   -0.8675   -0.1115    3.9426 C   0  0  0  0  0  0  0  0  0  0  0  0
   -1.1518   -1.4781    3.4792 C   0  0  0  0  0  0  0  0  0  0  0  0
   -0.2527   -2.1165    2.6269 C   0  0  0  0  0  0  0  0  0  0  0  0
   -0.5382   -3.3639    2.1121 C   0  0  0  0  0  0  0  0  0  0  0  0
   -1.7327   -4.0024    2.4202 C   0  0  0  0  0  0  0  0  0  0  0  0
   -2.0834   -5.5843    1.6879 S   0  0  0  0  0  0  0  0  0  0  0  0
   -3.5707   -5.1524    0.7094 C   0  0  0  0  0  0  0  0  0  0  0  0
   -3.2533   -4.1426   -0.3763 C   0  0  0  0  0  0  0  0  0  0  0  0
   -2.6029   -3.3744    3.3039 C   0  0  0  0  0  0  0  0  0  0  0  0
   -2.3267   -2.1290    3.8352 C   0  0  0  0  0  0  0  0  0  0  0  0
   -3.7642   -3.9672    3.6447 F   0  0  0  0  0  0  0  0  0  0  0  0
   -0.7534    0.2412    5.2735 C   0  0  0  0  0  0  0  0  0  0  0  0
   -0.9301   -0.8362    6.6293 S   0  0  0  0  0  0  0  0  0  0  0  0
   -0.7282    0.7939    1.5922 C   0  0  0  0  0  0  0  0  0  0  0  0
   -0.4109    1.9434    0.9327 C   0  0  0  0  0  0  0  0  0  0  0  0
   -0.0358    3.2558    2.0346 S   0  0  0  0  0  0  0  0  0  0  0  0
   -0.3254    2.0863   -0.4821 C   0  0  0  0  0  0  0  0  0  0  0  0
    0.1566    3.1211   -1.2264 C   0  0  0  0  0  0  0  0  0  0  0  0
    0.1918    2.8486   -2.6187 C   0  0  0  0  0  0  0  0  0  0  0  0
    0.6423    3.6813   -3.6587 C   0  0  0  0  0  0  0  0  0  0  0  0
    1.2025    5.0133   -3.4038 C   0  0  0  0  0  0  0  0  0  0  0  0
    2.2116    5.2074   -2.4617 C   0  0  0  0  0  0  0  0  0  0  0  0
    2.7609    6.4567   -2.2700 C   0  0  0  0  0  0  0  0  0  0  0  0
    2.3214    7.5629   -2.9952 C   0  0  0  0  0  0  0  0  0  0  0  0
    3.0813    9.1198   -2.6396 S   0  0  0  0  0  0  0  0  0  0  0  0
    3.2447    9.9184   -4.2796 C   0  0  0  0  0  0  0  0  0  0  0  0
    4.0331    9.0652   -5.2528 C   0  0  0  0  0  0  0  0  0  0  0  0
    1.2908    7.3601   -3.9077 C   0  0  0  0  0  0  0  0  0  0  0  0
    0.7774    8.3908   -4.6156 F   0  0  0  0  0  0  0  0  0  0  0  0
    0.7490    6.1106   -4.1282 C   0  0  0  0  0  0  0  0  0  0  0  0
    0.5655    3.1669   -4.9433 C   0  0  0  0  0  0  0  0  0  0  0  0
    0.0528    1.8797   -5.2360 C   0  0  0  0  0  0  0  0  0  0  0  0
   -0.4373    1.0601   -4.2046 C   0  0  0  0  0  0  0  0  0  0  0  0
   -1.0631   -0.2357   -4.4875 C   0  0  0  0  0  0  0  0  0  0  0  0
   -2.0522   -0.3430   -5.4668 C   0  0  0  0  0  0  0  0  0  0  0  0
   -2.6748   -1.5461   -5.7082 C   0  0  0  0  0  0  0  0  0  0  0  0
   -2.3524   -2.6984   -4.9865 C   0  0  0  0  0  0  0  0  0  0  0  0
   -3.2971   -4.1348   -5.3703 S   0  0  0  0  0  0  0  0  0  0  0  0
   -2.2981   -5.5635   -4.7987 C   0  0  0  0  0  0  0  0  0  0  0  0
   -2.9147   -6.8281   -5.3628 C   0  0  0  0  0  0  0  0  0  0  0  0
   -1.3703   -2.5734   -4.0087 C   0  0  0  0  0  0  0  0  0  0  0  0
   -0.7287   -1.3754   -3.7650 C   0  0  0  0  0  0  0  0  0  0  0  0
   -1.0064   -3.6267   -3.2402 F   0  0  0  0  0  0  0  0  0  0  0  0
   -0.3235    1.5614   -2.9179 C   0  0  0  0  0  0  0  0  0  0  0  0
   -0.8133    0.7234   -1.4729 S   0  0  0  0  0  0  0  0  0  0  0  0
    0.1907    1.5536   -6.6014 C   0  0  0  0  0  0  0  0  0  0  0  0
    0.7755    2.5337   -7.3592 C   0  0  0  0  0  0  0  0  0  0  0  0
    1.1588    3.9466   -6.3908 S   0  0  0  0  0  0  0  0  0  0  0  0
    1.0818    2.4100   -8.7388 C   0  0  0  0  0  0  0  0  0  0  0  0
    0.7946    0.8663   -9.4752 S   0  0  0  0  0  0  0  0  0  0  0  0
    1.4094    1.3779  -11.0152 C   0  0  0  0  0  0  0  0  0  0  0  0
    1.8074    2.7164  -10.9612 C   0  0  0  0  0  0  0  0  0  0  0  0
    1.6241    3.3012   -9.6678 C   0  0  0  0  0  0  0  0  0  0  0  0
    1.9846    4.6512   -9.4714 C   0  0  0  0  0  0  0  0  0  0  0  0
    2.5050    5.3928  -10.4900 C   0  0  0  0  0  0  0  0  0  0  0  0
    2.8925    6.8243  -10.3087 C   0  0  0  0  0  0  0  0  0  0  0  0
    2.6916    4.7973  -11.7785 C   0  0  0  0  0  0  0  0  0  0  0  0
    3.2196    5.6293  -12.7148 O   0  0  0  0  0  0  0  0  0  0  0  0
    3.4361    5.1294  -14.0112 C   0  0  0  0  0  0  0  0  0  0  0  0
    2.3490    3.4913  -12.0061 C   0  0  0  0  0  0  0  0  0  0  0  0
    1.4376    0.4129  -12.0544 C   0  0  0  0  0  0  0  0  0  0  0  0
    1.0761   -0.8997  -11.9114 C   0  0  0  0  0  0  0  0  0  0  0  0
    1.1821   -1.6669  -13.0933 C   0  0  0  0  0  0  0  0  0  0  0  0
    0.9320   -3.0400  -13.2543 C   0  0  0  0  0  0  0  0  0  0  0  0
    0.4489   -3.8443  -12.1260 C   0  0  0  0  0  0  0  0  0  0  0  0
   -0.6459   -3.4309  -11.3667 C   0  0  0  0  0  0  0  0  0  0  0  0
   -1.0615   -4.1624  -10.2754 C   0  0  0  0  0  0  0  0  0  0  0  0
   -0.3996   -5.3264   -9.8888 C   0  0  0  0  0  0  0  0  0  0  0  0
   -0.9663   -6.1223   -8.4156 S   0  0  0  0  0  0  0  0  0  0  0  0
   -0.8415   -7.9111   -8.7863 C   0  0  0  0  0  0  0  0  0  0  0  0
   -1.6536   -8.2937  -10.0068 C   0  0  0  0  0  0  0  0  0  0  0  0
    0.6895   -5.7281  -10.6558 C   0  0  0  0  0  0  0  0  0  0  0  0
    1.4001   -6.8298  -10.3271 F   0  0  0  0  0  0  0  0  0  0  0  0
    1.1022   -5.0174  -11.7647 C   0  0  0  0  0  0  0  0  0  0  0  0
    1.1875   -3.5727  -14.5095 C   0  0  0  0  0  0  0  0  0  0  0  0
    1.6720   -2.8033  -15.5951 C   0  0  0  0  0  0  0  0  0  0  0  0
    1.9346   -1.4342  -15.4287 C   0  0  0  0  0  0  0  0  0  0  0  0
    2.5099   -0.6072  -16.4957 C   0  0  0  0  0  0  0  0  0  0  0  0
    1.9547    0.6264  -16.8230 C   0  0  0  0  0  0  0  0  0  0  0  0
    2.5347    1.4405  -17.7755 C   0  0  0  0  0  0  0  0  0  0  0  0
    3.7017    1.0561  -18.4257 C   0  0  0  0  0  0  0  0  0  0  0  0
    4.5442    2.0209  -19.6377 S   0  0  0  0  0  0  0  0  0  0  0  0
    4.0130    3.7288  -19.2643 C   0  0  0  0  0  0  0  0  0  0  0  0
    4.4909    4.1953  -17.9023 C   0  0  0  0  0  0  0  0  0  0  0  0
    4.2319   -0.1952  -18.1088 C   0  0  0  0  0  0  0  0  0  0  0  0
    3.6594   -1.0200  -17.1664 C   0  0  0  0  0  0  0  0  0  0  0  0
    5.3528   -0.6107  -18.7315 F   0  0  0  0  0  0  0  0  0  0  0  0
    1.6643   -0.8986  -14.1797 C   0  0  0  0  0  0  0  0  0  0  0  0
    1.9427    0.7582  -13.7003 S   0  0  0  0  0  0  0  0  0  0  0  0
    1.7899   -3.5865  -16.7816 C   0  0  0  0  0  0  0  0  0  0  0  0
    1.4273   -4.8724  -16.6012 C   0  0  0  0  0  0  0  0  0  0  0  0
    0.9188   -5.2300  -14.9859 S   0  0  0  0  0  0  0  0  0  0  0  0
   -2.4795   -7.4939   18.0332 H   0  0  0  0  0  0  0  0  0  0  0  0
   -3.8854   -6.9916   15.8973 H   0  0  0  0  0  0  0  0  0  0  0  0
   -3.3350   -7.4955   13.5189 H   0  0  0  0  0  0  0  0  0  0  0  0
   -5.3219   -8.4040   12.3879 H   0  0  0  0  0  0  0  0  0  0  0  0
   -9.0545   -5.3597   11.4169 H   0  0  0  0  0  0  0  0  0  0  0  0
   -9.9227   -6.9021   11.3138 H   0  0  0  0  0  0  0  0  0  0  0  0
  -10.2549   -5.8823   13.5663 H   0  0  0  0  0  0  0  0  0  0  0  0
   -9.3442   -7.3935   13.6986 H   0  0  0  0  0  0  0  0  0  0  0  0
   -8.5096   -5.8411   13.8209 H   0  0  0  0  0  0  0  0  0  0  0  0
   -5.0209   -3.5689   13.2287 H   0  0  0  0  0  0  0  0  0  0  0  0
    1.9511   -3.6749   14.2565 H   0  0  0  0  0  0  0  0  0  0  0  0
    4.0432   -2.9053   15.2982 H   0  0  0  0  0  0  0  0  0  0  0  0
    5.8223   -2.4834   19.8563 H   0  0  0  0  0  0  0  0  0  0  0  0
    4.0748   -2.3840   20.1400 H   0  0  0  0  0  0  0  0  0  0  0  0
    4.9039   -4.7468   20.3800 H   0  0  0  0  0  0  0  0  0  0  0  0
    3.7784   -4.6161   19.0261 H   0  0  0  0  0  0  0  0  0  0  0  0
    5.5170   -4.6930   18.7214 H   0  0  0  0  0  0  0  0  0  0  0  0
   -0.0756   -3.0834   17.9835 H   0  0  0  0  0  0  0  0  0  0  0  0
    0.5108   -1.7827   13.7668 H   0  0  0  0  0  0  0  0  0  0  0  0
    0.2439    0.3225   13.5864 H   0  0  0  0  0  0  0  0  0  0  0  0
    1.4254    2.0475   14.6867 H   0  0  0  0  0  0  0  0  0  0  0  0
    1.3141    3.6198   13.8713 H   0  0  0  0  0  0  0  0  0  0  0  0
    2.7787    2.6677   13.7232 H   0  0  0  0  0  0  0  0  0  0  0  0
    2.9958    3.7554    9.4675 H   0  0  0  0  0  0  0  0  0  0  0  0
    3.0098    5.2395   10.4456 H   0  0  0  0  0  0  0  0  0  0  0  0
    1.4992    4.7089    9.6683 H   0  0  0  0  0  0  0  0  0  0  0  0
    1.0575    2.4805    9.1952 H   0  0  0  0  0  0  0  0  0  0  0  0
   -0.2060    2.5855    7.6117 H   0  0  0  0  0  0  0  0  0  0  0  0
   -1.1885    4.9553    3.9797 H   0  0  0  0  0  0  0  0  0  0  0  0
   -0.4238    7.1870    4.6726 H   0  0  0  0  0  0  0  0  0  0  0  0
    2.1498    9.0550    8.4204 H   0  0  0  0  0  0  0  0  0  0  0  0
    2.6516    7.3552    8.3915 H   0  0  0  0  0  0  0  0  0  0  0  0
    0.2202    6.6750    8.5545 H   0  0  0  0  0  0  0  0  0  0  0  0
    0.7054    7.6625    9.9385 H   0  0  0  0  0  0  0  0  0  0  0  0
   -0.2338    8.3782    8.6212 H   0  0  0  0  0  0  0  0  0  0  0  0
    1.8747    3.1953    6.3987 H   0  0  0  0  0  0  0  0  0  0  0  0
    0.6735   -1.6258    2.3683 H   0  0  0  0  0  0  0  0  0  0  0  0
    0.1523   -3.8556    1.4449 H   0  0  0  0  0  0  0  0  0  0  0  0
   -4.3372   -4.7909    1.3929 H   0  0  0  0  0  0  0  0  0  0  0  0
   -3.8920   -6.1026    0.2844 H   0  0  0  0  0  0  0  0  0  0  0  0
   -2.9476   -3.1910    0.0562 H   0  0  0  0  0  0  0  0  0  0  0  0
   -2.4461   -4.5039   -1.0099 H   0  0  0  0  0  0  0  0  0  0  0  0
   -4.1338   -3.9732   -0.9934 H   0  0  0  0  0  0  0  0  0  0  0  0
   -3.0378   -1.6709    4.5050 H   0  0  0  0  0  0  0  0  0  0  0  0
   -0.9958   -0.1138    1.0814 H   0  0  0  0  0  0  0  0  0  0  0  0
    0.4796    4.0483   -0.7878 H   0  0  0  0  0  0  0  0  0  0  0  0
    2.5923    4.3650   -1.9049 H   0  0  0  0  0  0  0  0  0  0  0  0
    3.5530    6.6004   -1.5516 H   0  0  0  0  0  0  0  0  0  0  0  0
    2.2537   10.1593   -4.6579 H   0  0  0  0  0  0  0  0  0  0  0  0
    3.7724   10.8446   -4.0520 H   0  0  0  0  0  0  0  0  0  0  0  0
    5.0084    8.8166   -4.8395 H   0  0  0  0  0  0  0  0  0  0  0  0
    3.5059    8.1389   -5.4741 H   0  0  0  0  0  0  0  0  0  0  0  0
    4.1759    9.6099   -6.1840 H   0  0  0  0  0  0  0  0  0  0  0  0
   -0.0492    6.0124   -4.8474 H   0  0  0  0  0  0  0  0  0  0  0  0
   -2.3480    0.5325   -6.0245 H   0  0  0  0  0  0  0  0  0  0  0  0
   -3.4427   -1.6204   -6.4627 H   0  0  0  0  0  0  0  0  0  0  0  0
   -1.2852   -5.4207   -5.1714 H   0  0  0  0  0  0  0  0  0  0  0  0
   -2.3028   -5.5782   -3.7105 H   0  0  0  0  0  0  0  0  0  0  0  0
   -2.3321   -7.6904   -5.0460 H   0  0  0  0  0  0  0  0  0  0  0  0
   -2.9255   -6.7879   -6.4492 H   0  0  0  0  0  0  0  0  0  0  0  0
   -3.9364   -6.9471   -5.0089 H   0  0  0  0  0  0  0  0  0  0  0  0
    0.0384   -1.3524   -3.0071 H   0  0  0  0  0  0  0  0  0  0  0  0
   -0.0993    0.6028   -7.0121 H   0  0  0  0  0  0  0  0  0  0  0  0
    1.8421    5.1010   -8.5015 H   0  0  0  0  0  0  0  0  0  0  0  0
    2.6916    7.1530   -9.2930 H   0  0  0  0  0  0  0  0  0  0  0  0
    2.3401    7.4514  -11.0066 H   0  0  0  0  0  0  0  0  0  0  0  0
    3.9514    6.9542  -10.5266 H   0  0  0  0  0  0  0  0  0  0  0  0
    3.8608    5.9562  -14.5785 H   0  0  0  0  0  0  0  0  0  0  0  0
    2.4995    4.8093  -14.4792 H   0  0  0  0  0  0  0  0  0  0  0  0
    4.1412    4.2921  -14.0074 H   0  0  0  0  0  0  0  0  0  0  0  0
    2.4841    3.0363  -12.9720 H   0  0  0  0  0  0  0  0  0  0  0  0
    0.7670   -1.3088  -10.9663 H   0  0  0  0  0  0  0  0  0  0  0  0
   -1.1870   -2.5414  -11.6511 H   0  0  0  0  0  0  0  0  0  0  0  0
   -1.9096   -3.8400   -9.6913 H   0  0  0  0  0  0  0  0  0  0  0  0
   -1.2372   -8.3823   -7.8863 H   0  0  0  0  0  0  0  0  0  0  0  0
    0.2073   -8.1783   -8.8933 H   0  0  0  0  0  0  0  0  0  0  0  0
   -1.2564   -7.8191  -10.9023 H   0  0  0  0  0  0  0  0  0  0  0  0
   -2.6917   -7.9903   -9.8863 H   0  0  0  0  0  0  0  0  0  0  0  0
   -1.6180   -9.3722  -10.1463 H   0  0  0  0  0  0  0  0  0  0  0  0
    1.9622   -5.3689  -12.3130 H   0  0  0  0  0  0  0  0  0  0  0  0
    1.0453    0.9477  -16.3387 H   0  0  0  0  0  0  0  0  0  0  0  0
    2.0656    2.3816  -18.0134 H   0  0  0  0  0  0  0  0  0  0  0  0
    4.4732    4.3147  -20.0596 H   0  0  0  0  0  0  0  0  0  0  0  0
    2.9307    3.7939  -19.3689 H   0  0  0  0  0  0  0  0  0  0  0  0
    4.0642    3.5853  -17.1084 H   0  0  0  0  0  0  0  0  0  0  0  0
    5.5745    4.1282  -17.8425 H   0  0  0  0  0  0  0  0  0  0  0  0
    4.1959    5.2304  -17.7411 H   0  0  0  0  0  0  0  0  0  0  0  0
    4.1317   -1.9619  -16.9349 H   0  0  0  0  0  0  0  0  0  0  0  0
    2.1144   -3.1855  -17.7245 H   0  0  0  0  0  0  0  0  0  0  0  0
    1.4219   -5.6639  -17.3248 H   0  0  0  0  0  0  0  0  0  0  0  0
  1  2  2  0  0  0  0
  2  3  1  0  0  0  0
  3  4  2  0  0  0  0
  4  5  1  0  0  0  0
  5  6  2  0  0  0  0
  6  7  1  0  0  0  0
  7  8  2  0  0  0  0
  8  9  1  0  0  0  0
  9 10  1  0  0  0  0
 10 11  1  0  0  0  0
  8 12  1  0  0  0  0
 12 13  1  0  0  0  0
 12 14  2  0  0  0  0
  4 15  1  0  0  0  0
 15 16  2  0  0  0  0
 16 17  1  0  0  0  0
 17 18  1  0  0  0  0
 18 19  2  0  0  0  0
 19 20  1  0  0  0  0
 20 21  2  0  0  0  0
 21 22  1  0  0  0  0
 22 23  1  0  0  0  0
 23 24  1  0  0  0  0
 21 25  1  0  0  0  0
 25 26  2  0  0  0  0
 25 27  1  0  0  0  0
 17 28  2  0  0  0  0
 28 29  1  0  0  0  0
 16 30  1  0  0  0  0
 30 31  2  0  0  0  0
 31 32  1  0  0  0  0
 31 33  1  0  0  0  0
 33 34  1  0  0  0  0
 34 35  1  0  0  0  0
 35 36  2  0  0  0  0
 36 37  1  0  0  0  0
 37 38  1  0  0  0  0
 38 39  2  0  0  0  0
 39 40  1  0  0  0  0
 39 41  1  0  0  0  0
 41 42  1  0  0  0  0
 42 43  1  0  0  0  0
 41 44  2  0  0  0  0
 35 45  1  0  0  0  0
 45 46  2  0  0  0  0
 46 47  1  0  0  0  0
 47 48  2  0  0  0  0
 48 49  1  0  0  0  0
 49 50  2  0  0  0  0
 50 51  1  0  0  0  0
 51 52  2  0  0  0  0
 52 53  1  0  0  0  0
 53 54  1  0  0  0  0
 54 55  1  0  0  0  0
 52 56  1  0  0  0  0
 56 57  1  0  0  0  0
 56 58  2  0  0  0  0
 48 59  1  0  0  0  0
 59 60  2  0  0  0  0
 60 61  1  0  0  0  0
 61 62  1  0  0  0  0
 62 63  2  0  0  0  0
 63 64  1  0  0  0  0
 64 65  2  0  0  0  0
 65 66  1  0  0  0  0
 66 67  1  0  0  0  0
 67 68  1  0  0  0  0
 65 69  1  0  0  0  0
 69 70  2  0  0  0  0
 69 71  1  0  0  0  0
 61 72  2  0  0  0  0
 72 73  1  0  0  0  0
 60 74  1  0  0  0  0
 74 75  2  0  0  0  0
 75 76  1  0  0  0  0
 75 77  1  0  0  0  0
 77 78  2  0  0  0  0
 78 79  1  0  0  0  0
 79 80  2  0  0  0  0
 80 81  1  0  0  0  0
 81 82  2  0  0  0  0
 82 83  1  0  0  0  0
 83 84  2  0  0  0  0
 84 85  1  0  0  0  0
 85 86  1  0  0  0  0
 86 87  1  0  0  0  0
 84 88  1  0  0  0  0
 88 89  1  0  0  0  0
 88 90  2  0  0  0  0
 80 91  1  0  0  0  0
 91 92  2  0  0  0  0
 92 93  1  0  0  0  0
 93 94  1  0  0  0  0
 94 95  2  0  0  0  0
 95 96  1  0  0  0  0
 96 97  2  0  0  0  0
 97 98  1  0  0  0  0
 98 99  1  0  0  0  0
 99100  1  0  0  0  0
 97101  1  0  0  0  0
101102  2  0  0  0  0
101103  1  0  0  0  0
 93104  2  0  0  0  0
104105  1  0  0  0  0
 92106  1  0  0  0  0
106107  2  0  0  0  0
107108  1  0  0  0  0
107109  1  0  0  0  0
109110  1  0  0  0  0
110111  1  0  0  0  0
111112  2  0  0  0  0
112113  1  0  0  0  0
113114  1  0  0  0  0
114115  2  0  0  0  0
115116  1  0  0  0  0
115117  1  0  0  0  0
117118  1  0  0  0  0
118119  1  0  0  0  0
117120  2  0  0  0  0
111121  1  0  0  0  0
121122  2  0  0  0  0
122123  1  0  0  0  0
123124  2  0  0  0  0
124125  1  0  0  0  0
125126  2  0  0  0  0
126127  1  0  0  0  0
127128  2  0  0  0  0
128129  1  0  0  0  0
129130  1  0  0  0  0
130131  1  0  0  0  0
128132  1  0  0  0  0
132133  1  0  0  0  0
132134  2  0  0  0  0
124135  1  0  0  0  0
135136  2  0  0  0  0
136137  1  0  0  0  0
137138  1  0  0  0  0
138139  2  0  0  0  0
139140  1  0  0  0  0
140141  2  0  0  0  0
141142  1  0  0  0  0
142143  1  0  0  0  0
143144  1  0  0  0  0
141145  1  0  0  0  0
145146  2  0  0  0  0
145147  1  0  0  0  0
137148  2  0  0  0  0
148149  1  0  0  0  0
136150  1  0  0  0  0
150151  2  0  0  0  0
151152  1  0  0  0  0
 29  1  1  0  0  0  0
 37 33  2  0  0  0  0
 73 45  1  0  0  0  0
105 77  1  0  0  0  0
113109  2  0  0  0  0
149121  1  0  0  0  0
 28  3  1  0  0  0  0
 44 36  1  0  0  0  0
 72 47  1  0  0  0  0
104 79  1  0  0  0  0
120112  1  0  0  0  0
148123  1  0  0  0  0
 14  5  1  0  0  0  0
 32 15  1  0  0  0  0
 58 49  1  0  0  0  0
 76 59  1  0  0  0  0
 90 81  1  0  0  0  0
108 91  1  0  0  0  0
134125  1  0  0  0  0
152135  1  0  0  0  0
 26 18  1  0  0  0  0
 70 62  1  0  0  0  0
102 94  1  0  0  0  0
146138  1  0  0  0  0
  1153  1  0  0  0  0
  2154  1  0  0  0  0
  6155  1  0  0  0  0
  7156  1  0  0  0  0
 10157  1  0  0  0  0
 10158  1  0  0  0  0
 11159  1  0  0  0  0
 11160  1  0  0  0  0
 11161  1  0  0  0  0
 14162  1  0  0  0  0
 19163  1  0  0  0  0
 20164  1  0  0  0  0
 23165  1  0  0  0  0
 23166  1  0  0  0  0
 24167  1  0  0  0  0
 24168  1  0  0  0  0
 24169  1  0  0  0  0
 26170  1  0  0  0  0
 30171  1  0  0  0  0
 38172  1  0  0  0  0
 40173  1  0  0  0  0
 40174  1  0  0  0  0
 40175  1  0  0  0  0
 43176  1  0  0  0  0
 43177  1  0  0  0  0
 43178  1  0  0  0  0
 44179  1  0  0  0  0
 46180  1  0  0  0  0
 50181  1  0  0  0  0
 51182  1  0  0  0  0
 54183  1  0  0  0  0
 54184  1  0  0  0  0
 55185  1  0  0  0  0
 55186  1  0  0  0  0
 55187  1  0  0  0  0
 58188  1  0  0  0  0
 63189  1  0  0  0  0
 64190  1  0  0  0  0
 67191  1  0  0  0  0
 67192  1  0  0  0  0
 68193  1  0  0  0  0
 68194  1  0  0  0  0
 68195  1  0  0  0  0
 70196  1  0  0  0  0
 74197  1  0  0  0  0
 78198  1  0  0  0  0
 82199  1  0  0  0  0
 83200  1  0  0  0  0
 86201  1  0  0  0  0
 86202  1  0  0  0  0
 87203  1  0  0  0  0
 87204  1  0  0  0  0
 87205  1  0  0  0  0
 90206  1  0  0  0  0
 95207  1  0  0  0  0
 96208  1  0  0  0  0
 99209  1  0  0  0  0
 99210  1  0  0  0  0
100211  1  0  0  0  0
100212  1  0  0  0  0
100213  1  0  0  0  0
102214  1  0  0  0  0
106215  1  0  0  0  0
114216  1  0  0  0  0
116217  1  0  0  0  0
116218  1  0  0  0  0
116219  1  0  0  0  0
119220  1  0  0  0  0
119221  1  0  0  0  0
119222  1  0  0  0  0
120223  1  0  0  0  0
122224  1  0  0  0  0
126225  1  0  0  0  0
127226  1  0  0  0  0
130227  1  0  0  0  0
130228  1  0  0  0  0
131229  1  0  0  0  0
131230  1  0  0  0  0
131231  1  0  0  0  0
134232  1  0  0  0  0
139233  1  0  0  0  0
140234  1  0  0  0  0
143235  1  0  0  0  0
143236  1  0  0  0  0
144237  1  0  0  0  0
144238  1  0  0  0  0
144239  1  0  0  0  0
146240  1  0  0  0  0
150241  1  0  0  0  0
151242  1  0  0  0  0
M  END
