
  xtb     03042203133D
 energy: -416.032084439670 gnorm: 0.000310911577 xtb: 6.4.1 (unknown)
242265  0     0  0            999 V2000
   -4.5488   -1.2179   12.3415 C   0  0  0  0  0  0  0  0  0  0  0  0
   -5.4849   -0.6037   11.5910 C   0  0  0  0  0  0  0  0  0  0  0  0
   -5.2810   -0.7821   10.1896 C   0  0  0  0  0  0  0  0  0  0  0  0
   -6.0514   -0.2849    9.1278 C   0  0  0  0  0  0  0  0  0  0  0  0
   -7.2744    0.4934    9.3636 C   0  0  0  0  0  0  0  0  0  0  0  0
   -7.4743    1.7248    8.7425 C   0  0  0  0  0  0  0  0  0  0  0  0
   -8.6175    2.4556    8.9849 C   0  0  0  0  0  0  0  0  0  0  0  0
   -9.6124    1.9857    9.8399 C   0  0  0  0  0  0  0  0  0  0  0  0
  -11.0517    2.9942   10.0423 S   0  0  0  0  0  0  0  0  0  0  0  0
  -11.4457    2.8498   11.8250 C   0  0  0  0  0  0  0  0  0  0  0  0
  -10.2881    3.2883   12.6993 C   0  0  0  0  0  0  0  0  0  0  0  0
   -9.4165    0.7374   10.4227 C   0  0  0  0  0  0  0  0  0  0  0  0
  -10.3562    0.1910   11.2269 F   0  0  0  0  0  0  0  0  0  0  0  0
   -8.2661    0.0057   10.2085 C   0  0  0  0  0  0  0  0  0  0  0  0
   -5.6008   -0.5654    7.8457 C   0  0  0  0  0  0  0  0  0  0  0  0
   -4.4464   -1.3449    7.5867 C   0  0  0  0  0  0  0  0  0  0  0  0
   -3.6841   -1.8558    8.6491 C   0  0  0  0  0  0  0  0  0  0  0  0
   -2.4833   -2.6659    8.4048 C   0  0  0  0  0  0  0  0  0  0  0  0
   -1.2595   -2.3257    8.9781 C   0  0  0  0  0  0  0  0  0  0  0  0
   -0.1266   -3.0600    8.7005 C   0  0  0  0  0  0  0  0  0  0  0  0
   -0.1686   -4.1744    7.8646 C   0  0  0  0  0  0  0  0  0  0  0  0
    1.3496   -5.0365    7.5837 S   0  0  0  0  0  0  0  0  0  0  0  0
    1.2639   -5.5432    5.8250 C   0  0  0  0  0  0  0  0  0  0  0  0
    1.0151   -4.3679    4.9038 C   0  0  0  0  0  0  0  0  0  0  0  0
   -1.4091   -4.5372    7.3471 C   0  0  0  0  0  0  0  0  0  0  0  0
   -2.5447   -3.7899    7.5876 C   0  0  0  0  0  0  0  0  0  0  0  0
   -1.5461   -5.6433    6.5849 F   0  0  0  0  0  0  0  0  0  0  0  0
   -4.1163   -1.5441    9.9293 C   0  0  0  0  0  0  0  0  0  0  0  0
   -3.3480   -2.0491   11.4126 S   0  0  0  0  0  0  0  0  0  0  0  0
   -4.1942   -1.4687    6.1974 C   0  0  0  0  0  0  0  0  0  0  0  0
   -5.1163   -0.8375    5.4143 C   0  0  0  0  0  0  0  0  0  0  0  0
   -6.3612   -0.0519    6.3619 S   0  0  0  0  0  0  0  0  0  0  0  0
   -5.1080   -0.7500    3.9876 C   0  0  0  0  0  0  0  0  0  0  0  0
   -4.2392   -1.3723    3.1401 C   0  0  0  0  0  0  0  0  0  0  0  0
   -4.4484   -1.0516    1.7772 C   0  0  0  0  0  0  0  0  0  0  0  0
   -3.6902   -1.4647    0.6740 C   0  0  0  0  0  0  0  0  0  0  0  0
   -2.4964   -2.3108    0.8029 C   0  0  0  0  0  0  0  0  0  0  0  0
   -1.2868   -1.8494    0.2897 C   0  0  0  0  0  0  0  0  0  0  0  0
   -0.1331   -2.5980    0.3897 C   0  0  0  0  0  0  0  0  0  0  0  0
   -0.1497   -3.8397    1.0110 C   0  0  0  0  0  0  0  0  0  0  0  0
    1.2529   -4.9007    1.1657 S   0  0  0  0  0  0  0  0  0  0  0  0
    2.6670   -3.8051    0.8276 C   0  0  0  0  0  0  0  0  0  0  0  0
    2.9175   -2.8097    1.9418 C   0  0  0  0  0  0  0  0  0  0  0  0
   -1.3674   -4.2948    1.5161 C   0  0  0  0  0  0  0  0  0  0  0  0
   -1.4149   -5.5038    2.1134 F   0  0  0  0  0  0  0  0  0  0  0  0
   -2.5267   -3.5545    1.4266 C   0  0  0  0  0  0  0  0  0  0  0  0
   -4.0483   -0.9390   -0.5562 C   0  0  0  0  0  0  0  0  0  0  0  0
   -5.0732    0.0228   -0.7369 C   0  0  0  0  0  0  0  0  0  0  0  0
   -5.8322    0.4364    0.3722 C   0  0  0  0  0  0  0  0  0  0  0  0
   -6.8774    1.4602    0.2540 C   0  0  0  0  0  0  0  0  0  0  0  0
   -6.6186    2.6827   -0.3658 C   0  0  0  0  0  0  0  0  0  0  0  0
   -7.6030    3.6404   -0.4658 C   0  0  0  0  0  0  0  0  0  0  0  0
   -8.8829    3.4285    0.0493 C   0  0  0  0  0  0  0  0  0  0  0  0
  -10.0313    4.7560   -0.1233 S   0  0  0  0  0  0  0  0  0  0  0  0
  -11.6821    3.9494   -0.1293 C   0  0  0  0  0  0  0  0  0  0  0  0
  -12.6829    4.8975   -0.7601 C   0  0  0  0  0  0  0  0  0  0  0  0
   -9.1169    2.2163    0.6914 C   0  0  0  0  0  0  0  0  0  0  0  0
   -8.1423    1.2433    0.7880 C   0  0  0  0  0  0  0  0  0  0  0  0
  -10.3166    1.9426    1.2521 F   0  0  0  0  0  0  0  0  0  0  0  0
   -5.5161   -0.1360    1.5982 C   0  0  0  0  0  0  0  0  0  0  0  0
   -6.2521    0.2637    3.1307 S   0  0  0  0  0  0  0  0  0  0  0  0
   -5.1443    0.4594   -2.0899 C   0  0  0  0  0  0  0  0  0  0  0  0
   -4.2412   -0.1537   -2.9036 C   0  0  0  0  0  0  0  0  0  0  0  0
   -3.2682   -1.3430   -2.0537 S   0  0  0  0  0  0  0  0  0  0  0  0
   -3.8053    0.1218   -4.2392 C   0  0  0  0  0  0  0  0  0  0  0  0
   -3.0712   -0.7349   -5.0023 C   0  0  0  0  0  0  0  0  0  0  0  0
   -2.3920   -0.1048   -6.0702 C   0  0  0  0  0  0  0  0  0  0  0  0
   -1.3843   -0.6699   -6.8655 C   0  0  0  0  0  0  0  0  0  0  0  0
   -1.0679   -2.1042   -6.7885 C   0  0  0  0  0  0  0  0  0  0  0  0
    0.2014   -2.5195   -6.3909 C   0  0  0  0  0  0  0  0  0  0  0  0
    0.5161   -3.8597   -6.3323 C   0  0  0  0  0  0  0  0  0  0  0  0
   -0.4225   -4.8315   -6.6638 C   0  0  0  0  0  0  0  0  0  0  0  0
    0.0699   -6.5339   -6.5890 S   0  0  0  0  0  0  0  0  0  0  0  0
   -0.5123   -7.1817   -8.1980 C   0  0  0  0  0  0  0  0  0  0  0  0
    0.1191   -6.4459   -9.3628 C   0  0  0  0  0  0  0  0  0  0  0  0
   -1.7019   -4.4058   -7.0029 C   0  0  0  0  0  0  0  0  0  0  0  0
   -2.6728   -5.3043   -7.2801 F   0  0  0  0  0  0  0  0  0  0  0  0
   -2.0283   -3.0660   -7.0761 C   0  0  0  0  0  0  0  0  0  0  0  0
   -0.5888    0.2170   -7.5606 C   0  0  0  0  0  0  0  0  0  0  0  0
   -0.7318    1.6292   -7.5062 C   0  0  0  0  0  0  0  0  0  0  0  0
   -1.8322    2.1757   -6.8220 C   0  0  0  0  0  0  0  0  0  0  0  0
   -2.0970    3.6207   -6.7538 C   0  0  0  0  0  0  0  0  0  0  0  0
   -3.3355    4.1123   -7.1609 C   0  0  0  0  0  0  0  0  0  0  0  0
   -3.6168    5.4599   -7.0841 C   0  0  0  0  0  0  0  0  0  0  0  0
   -2.6780    6.3646   -6.5970 C   0  0  0  0  0  0  0  0  0  0  0  0
   -3.1115    8.0834   -6.5706 S   0  0  0  0  0  0  0  0  0  0  0  0
   -2.6315    8.5890   -4.8769 C   0  0  0  0  0  0  0  0  0  0  0  0
   -3.3738    7.7932   -3.8221 C   0  0  0  0  0  0  0  0  0  0  0  0
   -1.4426    5.8616   -6.2035 C   0  0  0  0  0  0  0  0  0  0  0  0
   -1.1511    4.5133   -6.2631 C   0  0  0  0  0  0  0  0  0  0  0  0
   -0.4776    6.6875   -5.7414 F   0  0  0  0  0  0  0  0  0  0  0  0
   -2.6289    1.2892   -6.1083 C   0  0  0  0  0  0  0  0  0  0  0  0
   -3.8104    1.7519   -4.9000 S   0  0  0  0  0  0  0  0  0  0  0  0
    0.4345    2.2923   -7.9811 C   0  0  0  0  0  0  0  0  0  0  0  0
    1.4417    1.4307   -8.3292 C   0  0  0  0  0  0  0  0  0  0  0  0
    0.8660   -0.2360   -8.4057 S   0  0  0  0  0  0  0  0  0  0  0  0
    2.8512    1.5800   -8.1784 C   0  0  0  0  0  0  0  0  0  0  0  0
    3.6234    0.1600   -7.5408 S   0  0  0  0  0  0  0  0  0  0  0  0
    4.9356    1.0608   -6.8523 C   0  0  0  0  0  0  0  0  0  0  0  0
    4.8775    2.3921   -7.2770 C   0  0  0  0  0  0  0  0  0  0  0  0
    3.6833    2.6896   -8.0158 C   0  0  0  0  0  0  0  0  0  0  0  0
    3.4571    4.0146   -8.4424 C   0  0  0  0  0  0  0  0  0  0  0  0
    4.3499    5.0040   -8.1514 C   0  0  0  0  0  0  0  0  0  0  0  0
    4.1393    6.4162   -8.5910 C   0  0  0  0  0  0  0  0  0  0  0  0
    5.5327    4.7000   -7.4011 C   0  0  0  0  0  0  0  0  0  0  0  0
    6.3422    5.7647   -7.1733 O   0  0  0  0  0  0  0  0  0  0  0  0
    7.5276    5.5658   -6.4403 C   0  0  0  0  0  0  0  0  0  0  0  0
    5.7890    3.4221   -6.9765 C   0  0  0  0  0  0  0  0  0  0  0  0
    5.5902    0.4355   -5.7550 C   0  0  0  0  0  0  0  0  0  0  0  0
    5.0107   -0.5847   -5.0467 C   0  0  0  0  0  0  0  0  0  0  0  0
    5.6700   -0.9131   -3.8477 C   0  0  0  0  0  0  0  0  0  0  0  0
    5.2252   -1.8115   -2.8603 C   0  0  0  0  0  0  0  0  0  0  0  0
    3.8692   -2.3762   -2.9149 C   0  0  0  0  0  0  0  0  0  0  0  0
    3.5897   -3.7182   -2.6789 C   0  0  0  0  0  0  0  0  0  0  0  0
    2.2887   -4.1944   -2.6831 C   0  0  0  0  0  0  0  0  0  0  0  0
    1.2132   -3.3421   -2.9098 C   0  0  0  0  0  0  0  0  0  0  0  0
   -0.4912   -3.7844   -2.9051 S   0  0  0  0  0  0  0  0  0  0  0  0
   -0.5327   -5.4344   -2.1228 C   0  0  0  0  0  0  0  0  0  0  0  0
   -0.4086   -6.5658   -3.1230 C   0  0  0  0  0  0  0  0  0  0  0  0
    1.5090   -1.9985   -3.1532 C   0  0  0  0  0  0  0  0  0  0  0  0
    0.4952   -1.1321   -3.3723 F   0  0  0  0  0  0  0  0  0  0  0  0
    2.7956   -1.5143   -3.1558 C   0  0  0  0  0  0  0  0  0  0  0  0
    6.0684   -1.9858   -1.7774 C   0  0  0  0  0  0  0  0  0  0  0  0
    7.2781   -1.2657   -1.6037 C   0  0  0  0  0  0  0  0  0  0  0  0
    7.6892   -0.3286   -2.5725 C   0  0  0  0  0  0  0  0  0  0  0  0
    8.9230    0.4484   -2.4124 C   0  0  0  0  0  0  0  0  0  0  0  0
   10.1288   -0.1771   -2.1086 C   0  0  0  0  0  0  0  0  0  0  0  0
   11.2995    0.5459   -1.9851 C   0  0  0  0  0  0  0  0  0  0  0  0
   11.3085    1.9242   -2.1672 C   0  0  0  0  0  0  0  0  0  0  0  0
   12.7204    2.9687   -2.0236 S   0  0  0  0  0  0  0  0  0  0  0  0
   14.1370    1.8184   -2.0877 C   0  0  0  0  0  0  0  0  0  0  0  0
   14.3197    1.2061   -3.4634 C   0  0  0  0  0  0  0  0  0  0  0  0
   10.0904    2.5392   -2.4610 C   0  0  0  0  0  0  0  0  0  0  0  0
    8.9174    1.8312   -2.5845 C   0  0  0  0  0  0  0  0  0  0  0  0
   10.0548    3.8773   -2.6311 F   0  0  0  0  0  0  0  0  0  0  0  0
    6.8602   -0.1674   -3.6722 C   0  0  0  0  0  0  0  0  0  0  0  0
    7.0742    0.9727   -4.9876 S   0  0  0  0  0  0  0  0  0  0  0  0
    7.8540   -1.5125   -0.3324 C   0  0  0  0  0  0  0  0  0  0  0  0
    7.1495   -2.3891    0.4464 C   0  0  0  0  0  0  0  0  0  0  0  0
    5.7314   -2.9948   -0.3975 S   0  0  0  0  0  0  0  0  0  0  0  0
    7.3778   -2.7053    1.8142 C   0  0  0  0  0  0  0  0  0  0  0  0
    8.4886   -1.7307    2.7314 S   0  0  0  0  0  0  0  0  0  0  0  0
    8.0501   -2.4780    4.2025 C   0  0  0  0  0  0  0  0  0  0  0  0
    7.0936   -3.4521    4.0274 C   0  0  0  0  0  0  0  0  0  0  0  0
    6.7280   -3.6138    2.6508 C   0  0  0  0  0  0  0  0  0  0  0  0
    5.8249   -4.6451    2.3141 C   0  0  0  0  0  0  0  0  0  0  0  0
    5.2246   -5.3965    3.2797 C   0  0  0  0  0  0  0  0  0  0  0  0
    4.2595   -6.4871    2.9425 C   0  0  0  0  0  0  0  0  0  0  0  0
    5.5161   -5.1501    4.6641 C   0  0  0  0  0  0  0  0  0  0  0  0
    4.8015   -5.9185    5.5306 O   0  0  0  0  0  0  0  0  0  0  0  0
    5.0093   -5.7454    6.9116 C   0  0  0  0  0  0  0  0  0  0  0  0
    6.4574   -4.2287    5.0265 C   0  0  0  0  0  0  0  0  0  0  0  0
   -4.4712   -1.2389   13.4110 H   0  0  0  0  0  0  0  0  0  0  0  0
   -6.2925   -0.0260   12.0024 H   0  0  0  0  0  0  0  0  0  0  0  0
   -6.7153    2.1248    8.0885 H   0  0  0  0  0  0  0  0  0  0  0  0
   -8.7615    3.4151    8.5135 H   0  0  0  0  0  0  0  0  0  0  0  0
  -12.3018    3.5138   11.9448 H   0  0  0  0  0  0  0  0  0  0  0  0
  -11.7561    1.8297   12.0396 H   0  0  0  0  0  0  0  0  0  0  0  0
  -10.5885    3.2638   13.7449 H   0  0  0  0  0  0  0  0  0  0  0  0
   -9.4332    2.6266   12.5720 H   0  0  0  0  0  0  0  0  0  0  0  0
   -9.9808    4.3010   12.4466 H   0  0  0  0  0  0  0  0  0  0  0  0
   -8.1711   -0.9617   10.6775 H   0  0  0  0  0  0  0  0  0  0  0  0
   -1.1910   -1.4593    9.6174 H   0  0  0  0  0  0  0  0  0  0  0  0
    0.8238   -2.7777    9.1260 H   0  0  0  0  0  0  0  0  0  0  0  0
    0.5033   -6.3126    5.7135 H   0  0  0  0  0  0  0  0  0  0  0  0
    2.2461   -5.9801    5.6442 H   0  0  0  0  0  0  0  0  0  0  0  0
    1.7867   -3.6101    5.0295 H   0  0  0  0  0  0  0  0  0  0  0  0
    1.0186   -4.7144    3.8729 H   0  0  0  0  0  0  0  0  0  0  0  0
    0.0477   -3.9098    5.1030 H   0  0  0  0  0  0  0  0  0  0  0  0
   -3.4805   -4.1147    7.1589 H   0  0  0  0  0  0  0  0  0  0  0  0
   -3.3402   -1.9864    5.8018 H   0  0  0  0  0  0  0  0  0  0  0  0
   -3.4575   -2.0308    3.4703 H   0  0  0  0  0  0  0  0  0  0  0  0
   -1.2420   -0.8835   -0.1881 H   0  0  0  0  0  0  0  0  0  0  0  0
    0.7784   -2.2048   -0.0294 H   0  0  0  0  0  0  0  0  0  0  0  0
    2.5161   -3.3223   -0.1363 H   0  0  0  0  0  0  0  0  0  0  0  0
    3.5021   -4.4953    0.7339 H   0  0  0  0  0  0  0  0  0  0  0  0
    2.0486   -2.1753    2.1053 H   0  0  0  0  0  0  0  0  0  0  0  0
    3.7654   -2.1810    1.6788 H   0  0  0  0  0  0  0  0  0  0  0  0
    3.1513   -3.3292    2.8673 H   0  0  0  0  0  0  0  0  0  0  0  0
   -3.4448   -3.9601    1.8223 H   0  0  0  0  0  0  0  0  0  0  0  0
   -5.6325    2.8872   -0.7537 H   0  0  0  0  0  0  0  0  0  0  0  0
   -7.3991    4.5842   -0.9475 H   0  0  0  0  0  0  0  0  0  0  0  0
  -11.9558    3.7156    0.8982 H   0  0  0  0  0  0  0  0  0  0  0  0
  -11.5915    3.0308   -0.7071 H   0  0  0  0  0  0  0  0  0  0  0  0
  -12.3928    5.1371   -1.7807 H   0  0  0  0  0  0  0  0  0  0  0  0
  -12.7416    5.8232   -0.1921 H   0  0  0  0  0  0  0  0  0  0  0  0
  -13.6670    4.4341   -0.7745 H   0  0  0  0  0  0  0  0  0  0  0  0
   -8.3896    0.3158    1.2804 H   0  0  0  0  0  0  0  0  0  0  0  0
   -5.8372    1.2015   -2.4437 H   0  0  0  0  0  0  0  0  0  0  0  0
   -2.9357   -1.7721   -4.7514 H   0  0  0  0  0  0  0  0  0  0  0  0
    0.9434   -1.7855   -6.1201 H   0  0  0  0  0  0  0  0  0  0  0  0
    1.5028   -4.1774   -6.0320 H   0  0  0  0  0  0  0  0  0  0  0  0
   -1.5987   -7.1315   -8.2240 H   0  0  0  0  0  0  0  0  0  0  0  0
   -0.2058   -8.2275   -8.1779 H   0  0  0  0  0  0  0  0  0  0  0  0
   -0.1972   -6.9009  -10.2993 H   0  0  0  0  0  0  0  0  0  0  0  0
    1.2044   -6.4922   -9.3003 H   0  0  0  0  0  0  0  0  0  0  0  0
   -0.1809   -5.3991   -9.3688 H   0  0  0  0  0  0  0  0  0  0  0  0
   -3.0302   -2.7846   -7.3625 H   0  0  0  0  0  0  0  0  0  0  0  0
   -4.0791    3.4289   -7.5415 H   0  0  0  0  0  0  0  0  0  0  0  0
   -4.5763    5.8382   -7.4002 H   0  0  0  0  0  0  0  0  0  0  0  0
   -2.9035    9.6436   -4.8398 H   0  0  0  0  0  0  0  0  0  0  0  0
   -1.5526    8.4972   -4.7739 H   0  0  0  0  0  0  0  0  0  0  0  0
   -4.4489    7.8855   -3.9613 H   0  0  0  0  0  0  0  0  0  0  0  0
   -3.1086    6.7384   -3.8740 H   0  0  0  0  0  0  0  0  0  0  0  0
   -3.1162    8.1653   -2.8323 H   0  0  0  0  0  0  0  0  0  0  0  0
   -0.1913    4.1723   -5.9070 H   0  0  0  0  0  0  0  0  0  0  0  0
    0.5735    3.3553   -7.9176 H   0  0  0  0  0  0  0  0  0  0  0  0
    2.5723    4.2341   -9.0206 H   0  0  0  0  0  0  0  0  0  0  0  0
    3.2214    6.5118   -9.1642 H   0  0  0  0  0  0  0  0  0  0  0  0
    4.9800    6.7480   -9.1980 H   0  0  0  0  0  0  0  0  0  0  0  0
    4.0898    7.0718   -7.7230 H   0  0  0  0  0  0  0  0  0  0  0  0
    7.3201    5.1951   -5.4320 H   0  0  0  0  0  0  0  0  0  0  0  0
    8.2019    4.8700   -6.9490 H   0  0  0  0  0  0  0  0  0  0  0  0
    8.0009    6.5438   -6.3740 H   0  0  0  0  0  0  0  0  0  0  0  0
    6.6801    3.1740   -6.4236 H   0  0  0  0  0  0  0  0  0  0  0  0
    4.1009   -1.0621   -5.3611 H   0  0  0  0  0  0  0  0  0  0  0  0
    4.4004   -4.4084   -2.5022 H   0  0  0  0  0  0  0  0  0  0  0  0
    2.1188   -5.2433   -2.5026 H   0  0  0  0  0  0  0  0  0  0  0  0
    0.2450   -5.4656   -1.3620 H   0  0  0  0  0  0  0  0  0  0  0  0
   -1.5036   -5.4605   -1.6271 H   0  0  0  0  0  0  0  0  0  0  0  0
   -0.4452   -7.5200   -2.6015 H   0  0  0  0  0  0  0  0  0  0  0  0
    0.5240   -6.5069   -3.6790 H   0  0  0  0  0  0  0  0  0  0  0  0
   -1.2255   -6.5304   -3.8389 H   0  0  0  0  0  0  0  0  0  0  0  0
    2.9562   -0.4589   -3.3130 H   0  0  0  0  0  0  0  0  0  0  0  0
   10.1561   -1.2496   -1.9874 H   0  0  0  0  0  0  0  0  0  0  0  0
   12.2095    0.0218   -1.7418 H   0  0  0  0  0  0  0  0  0  0  0  0
   14.9869    2.4498   -1.8287 H   0  0  0  0  0  0  0  0  0  0  0  0
   14.0148    1.0674   -1.3083 H   0  0  0  0  0  0  0  0  0  0  0  0
   15.1950    0.5592   -3.4676 H   0  0  0  0  0  0  0  0  0  0  0  0
   13.4504    0.6174   -3.7487 H   0  0  0  0  0  0  0  0  0  0  0  0
   14.4615    1.9883   -4.2053 H   0  0  0  0  0  0  0  0  0  0  0  0
    8.0042    2.3640   -2.7965 H   0  0  0  0  0  0  0  0  0  0  0  0
    8.7412   -1.0176    0.0210 H   0  0  0  0  0  0  0  0  0  0  0  0
    8.5089   -2.1568    5.1161 H   0  0  0  0  0  0  0  0  0  0  0  0
    5.6295   -4.8544    1.2744 H   0  0  0  0  0  0  0  0  0  0  0  0
    4.4820   -7.3789    3.5241 H   0  0  0  0  0  0  0  0  0  0  0  0
    3.2426   -6.1836    3.1901 H   0  0  0  0  0  0  0  0  0  0  0  0
    4.3000   -6.7279    1.8836 H   0  0  0  0  0  0  0  0  0  0  0  0
    4.3213   -6.4300    7.4050 H   0  0  0  0  0  0  0  0  0  0  0  0
    6.0365   -5.9933    7.1963 H   0  0  0  0  0  0  0  0  0  0  0  0
    4.7796   -4.7223    7.2246 H   0  0  0  0  0  0  0  0  0  0  0  0
    6.7316   -4.0597    6.0551 H   0  0  0  0  0  0  0  0  0  0  0  0
  1  2  2  0  0  0  0
  2  3  1  0  0  0  0
  3  4  2  0  0  0  0
  4  5  1  0  0  0  0
  5  6  2  0  0  0  0
  6  7  1  0  0  0  0
  7  8  2  0  0  0  0
  8  9  1  0  0  0  0
  9 10  1  0  0  0  0
 10 11  1  0  0  0  0
  8 12  1  0  0  0  0
 12 13  1  0  0  0  0
 12 14  2  0  0  0  0
  4 15  1  0  0  0  0
 15 16  2  0  0  0  0
 16 17  1  0  0  0  0
 17 18  1  0  0  0  0
 18 19  2  0  0  0  0
 19 20  1  0  0  0  0
 20 21  2  0  0  0  0
 21 22  1  0  0  0  0
 22 23  1  0  0  0  0
 23 24  1  0  0  0  0
 21 25  1  0  0  0  0
 25 26  2  0  0  0  0
 25 27  1  0  0  0  0
 17 28  2  0  0  0  0
 28 29  1  0  0  0  0
 16 30  1  0  0  0  0
 30 31  2  0  0  0  0
 31 32  1  0  0  0  0
 31 33  1  0  0  0  0
 33 34  2  0  0  0  0
 34 35  1  0  0  0  0
 35 36  2  0  0  0  0
 36 37  1  0  0  0  0
 37 38  2  0  0  0  0
 38 39  1  0  0  0  0
 39 40  2  0  0  0  0
 40 41  1  0  0  0  0
 41 42  1  0  0  0  0
 42 43  1  0  0  0  0
 40 44  1  0  0  0  0
 44 45  1  0  0  0  0
 44 46  2  0  0  0  0
 36 47  1  0  0  0  0
 47 48  2  0  0  0  0
 48 49  1  0  0  0  0
 49 50  1  0  0  0  0
 50 51  2  0  0  0  0
 51 52  1  0  0  0  0
 52 53  2  0  0  0  0
 53 54  1  0  0  0  0
 54 55  1  0  0  0  0
 55 56  1  0  0  0  0
 53 57  1  0  0  0  0
 57 58  2  0  0  0  0
 57 59  1  0  0  0  0
 49 60  2  0  0  0  0
 60 61  1  0  0  0  0
 48 62  1  0  0  0  0
 62 63  2  0  0  0  0
 63 64  1  0  0  0  0
 63 65  1  0  0  0  0
 65 66  2  0  0  0  0
 66 67  1  0  0  0  0
 67 68  2  0  0  0  0
 68 69  1  0  0  0  0
 69 70  2  0  0  0  0
 70 71  1  0  0  0  0
 71 72  2  0  0  0  0
 72 73  1  0  0  0  0
 73 74  1  0  0  0  0
 74 75  1  0  0  0  0
 72 76  1  0  0  0  0
 76 77  1  0  0  0  0
 76 78  2  0  0  0  0
 68 79  1  0  0  0  0
 79 80  2  0  0  0  0
 80 81  1  0  0  0  0
 81 82  1  0  0  0  0
 82 83  2  0  0  0  0
 83 84  1  0  0  0  0
 84 85  2  0  0  0  0
 85 86  1  0  0  0  0
 86 87  1  0  0  0  0
 87 88  1  0  0  0  0
 85 89  1  0  0  0  0
 89 90  2  0  0  0  0
 89 91  1  0  0  0  0
 81 92  2  0  0  0  0
 92 93  1  0  0  0  0
 80 94  1  0  0  0  0
 94 95  2  0  0  0  0
 95 96  1  0  0  0  0
 95 97  1  0  0  0  0
 97 98  1  0  0  0  0
 98 99  1  0  0  0  0
 99100  2  0  0  0  0
100101  1  0  0  0  0
101102  1  0  0  0  0
102103  2  0  0  0  0
103104  1  0  0  0  0
103105  1  0  0  0  0
105106  1  0  0  0  0
106107  1  0  0  0  0
105108  2  0  0  0  0
 99109  1  0  0  0  0
109110  2  0  0  0  0
110111  1  0  0  0  0
111112  2  0  0  0  0
112113  1  0  0  0  0
113114  2  0  0  0  0
114115  1  0  0  0  0
115116  2  0  0  0  0
116117  1  0  0  0  0
117118  1  0  0  0  0
118119  1  0  0  0  0
116120  1  0  0  0  0
120121  1  0  0  0  0
120122  2  0  0  0  0
112123  1  0  0  0  0
123124  2  0  0  0  0
124125  1  0  0  0  0
125126  1  0  0  0  0
126127  2  0  0  0  0
127128  1  0  0  0  0
128129  2  0  0  0  0
129130  1  0  0  0  0
130131  1  0  0  0  0
131132  1  0  0  0  0
129133  1  0  0  0  0
133134  2  0  0  0  0
133135  1  0  0  0  0
125136  2  0  0  0  0
136137  1  0  0  0  0
124138  1  0  0  0  0
138139  2  0  0  0  0
139140  1  0  0  0  0
139141  1  0  0  0  0
141142  1  0  0  0  0
142143  1  0  0  0  0
143144  2  0  0  0  0
144145  1  0  0  0  0
145146  1  0  0  0  0
146147  2  0  0  0  0
147148  1  0  0  0  0
147149  1  0  0  0  0
149150  1  0  0  0  0
150151  1  0  0  0  0
149152  2  0  0  0  0
 29  1  1  0  0  0  0
 61 33  1  0  0  0  0
 93 65  1  0  0  0  0
101 97  2  0  0  0  0
137109  1  0  0  0  0
145141  2  0  0  0  0
 28  3  1  0  0  0  0
 60 35  1  0  0  0  0
 92 67  1  0  0  0  0
108100  1  0  0  0  0
136111  1  0  0  0  0
152144  1  0  0  0  0
 14  5  1  0  0  0  0
 32 15  1  0  0  0  0
 46 37  1  0  0  0  0
 64 47  1  0  0  0  0
 78 69  1  0  0  0  0
 96 79  1  0  0  0  0
122113  1  0  0  0  0
140123  1  0  0  0  0
 26 18  1  0  0  0  0
 58 50  1  0  0  0  0
 90 82  1  0  0  0  0
134126  1  0  0  0  0
  1153  1  0  0  0  0
  2154  1  0  0  0  0
  6155  1  0  0  0  0
  7156  1  0  0  0  0
 10157  1  0  0  0  0
 10158  1  0  0  0  0
 11159  1  0  0  0  0
 11160  1  0  0  0  0
 11161  1  0  0  0  0
 14162  1  0  0  0  0
 19163  1  0  0  0  0
 20164  1  0  0  0  0
 23165  1  0  0  0  0
 23166  1  0  0  0  0
 24167  1  0  0  0  0
 24168  1  0  0  0  0
 24169  1  0  0  0  0
 26170  1  0  0  0  0
 30171  1  0  0  0  0
 34172  1  0  0  0  0
 38173  1  0  0  0  0
 39174  1  0  0  0  0
 42175  1  0  0  0  0
 42176  1  0  0  0  0
 43177  1  0  0  0  0
 43178  1  0  0  0  0
 43179  1  0  0  0  0
 46180  1  0  0  0  0
 51181  1  0  0  0  0
 52182  1  0  0  0  0
 55183  1  0  0  0  0
 55184  1  0  0  0  0
 56185  1  0  0  0  0
 56186  1  0  0  0  0
 56187  1  0  0  0  0
 58188  1  0  0  0  0
 62189  1  0  0  0  0
 66190  1  0  0  0  0
 70191  1  0  0  0  0
 71192  1  0  0  0  0
 74193  1  0  0  0  0
 74194  1  0  0  0  0
 75195  1  0  0  0  0
 75196  1  0  0  0  0
 75197  1  0  0  0  0
 78198  1  0  0  0  0
 83199  1  0  0  0  0
 84200  1  0  0  0  0
 87201  1  0  0  0  0
 87202  1  0  0  0  0
 88203  1  0  0  0  0
 88204  1  0  0  0  0
 88205  1  0  0  0  0
 90206  1  0  0  0  0
 94207  1  0  0  0  0
102208  1  0  0  0  0
104209  1  0  0  0  0
104210  1  0  0  0  0
104211  1  0  0  0  0
107212  1  0  0  0  0
107213  1  0  0  0  0
107214  1  0  0  0  0
108215  1  0  0  0  0
110216  1  0  0  0  0
114217  1  0  0  0  0
115218  1  0  0  0  0
118219  1  0  0  0  0
118220  1  0  0  0  0
119221  1  0  0  0  0
119222  1  0  0  0  0
119223  1  0  0  0  0
122224  1  0  0  0  0
127225  1  0  0  0  0
128226  1  0  0  0  0
131227  1  0  0  0  0
131228  1  0  0  0  0
132229  1  0  0  0  0
132230  1  0  0  0  0
132231  1  0  0  0  0
134232  1  0  0  0  0
138233  1  0  0  0  0
143234  1  0  0  0  0
146235  1  0  0  0  0
148236  1  0  0  0  0
148237  1  0  0  0  0
148238  1  0  0  0  0
151239  1  0  0  0  0
151240  1  0  0  0  0
151241  1  0  0  0  0
152242  1  0  0  0  0
M  END
