90

C         -5.18110       -0.35800        3.84210
N         -4.48200       -1.41750        4.32950
C         -3.25310       -1.51700        3.76100
C         -3.14540       -0.45880        2.84350
C         -4.38140        0.28180        2.90800
N         -4.56630        1.38760        2.15400
C         -3.55610        1.70450        1.38850
C         -2.35150        0.96350        1.31420
N         -2.13090       -0.11450        2.03260
C         -2.25340       -2.47290        4.04800
N         -1.07740       -2.40950        3.36070
C         -0.18240       -3.36980        3.74310
C         -0.82740       -4.11710        4.75600
C         -2.13930       -3.54570        4.94300
N         -3.01170       -4.03020        5.84110
C         -2.57290       -5.06080        6.52610
C         -1.29340       -5.62660        6.33660
N         -0.42340       -5.17200        5.46660
C          1.07990       -3.48280        3.12290
N          1.39240       -2.69770        2.04500
C          2.64860       -2.92520        1.54540
C          3.20430       -3.93340        2.36180
C          2.21670       -4.28520        3.35230
N          2.45730       -5.21340        4.28410
C          3.63820       -5.77760        4.21620
C          4.59720       -5.44750        3.23360
N          4.39580       -4.53610        2.31300
C          3.10450       -2.21960        0.41440
N          2.26210       -1.38850       -0.27180
C          2.84160       -0.75300       -1.33700
C          4.18260       -1.20040       -1.34890
C          4.34590       -2.12310       -0.25070
N          5.51720       -2.70920        0.00620
C          6.49330       -2.39790       -0.81190
C          6.33650       -1.50590       -1.89190
N          5.20100       -0.90520       -2.16480
C          2.05620        0.12440       -2.10930
S          0.37150        0.27560       -1.66990
C          0.02830        1.44180       -2.91380
C          1.19680        1.69620       -3.64960
C          2.33190        0.95180       -3.20450
C          3.56760        1.10570       -3.86140
C          3.68660        1.95650       -4.92180
C          4.98390        2.14110       -5.64070
C          2.54620        2.68930       -5.37500
O          2.78110        3.49590       -6.44580
C          1.71980        4.26530       -6.95320
C          1.33020        2.55870       -4.75520
C         -1.25890        2.01940       -2.97200
S         -1.52000        3.59380       -3.67380
C         -3.15710        3.63670       -3.17940
C         -3.52760        2.49190       -2.51230
C         -2.45490        1.54790       -2.40780
C         -2.72670        0.29200       -1.82730
C         -3.95520        0.00580       -1.30850
C         -4.26330       -1.32160       -0.69350
C         -4.99650        0.98980       -1.34230
O         -6.15390        0.59560       -0.74840
C         -7.18130        1.54270       -0.59640
C         -4.79350        2.19720       -1.94930
H         -6.16950       -0.12550        4.17980
H         -4.80300       -2.06430        5.03460
H         -3.67050        2.59350        0.78320
H         -1.55760        1.27310        0.64900
H         -0.95900       -1.66250        2.68400
H         -3.25400       -5.47010        7.26020
H         -0.98170       -6.48120        6.92070
H          0.76200       -2.00550        1.67640
H          3.85160       -6.52780        4.96560
H          5.55600       -5.94700        3.20790
H          1.28390       -1.26130       -0.07000
H          7.44880       -2.86470       -0.61670
H          7.16530       -1.27590       -2.54780
H          4.41180        0.53380       -3.50910
H          5.75800        1.52430       -5.19360
H          4.87110        1.87470       -6.69050
H          5.28760        3.18610       -5.60330
H          0.90580        3.63350       -7.32330
H          1.32680        4.95470       -6.19890
H          2.13830        4.83540       -7.78120
H          0.46480        3.09590       -5.10340
H         -3.75410        4.49580       -3.40980
H         -1.96240       -0.46870       -1.80770
H         -5.05980       -1.81520       -1.24830
H         -4.61990       -1.18620        0.32650
H         -3.38340       -1.95960       -0.68530
H         -7.96670        1.03800       -0.03650
H         -7.57780        1.86700       -1.56440
H         -6.83480        2.41250       -0.03030
H         -5.56820        2.94360       -2.01970
