
  xtb     03032208493D
 energy: -137.043062847093 gnorm: 0.000728233741 xtb: 6.4.1 (unknown)
 67 78  0     0  0            999 V2000
    9.1209   -4.4385   -3.0174 C   0  0  0  0  0  0  0  0  0  0  0  0
    7.4886   -4.4404   -2.4472 S   0  0  0  0  0  0  0  0  0  0  0  0
    9.5599   -3.1663   -3.1944 C   0  0  0  0  0  0  0  0  0  0  0  0
   11.0274   -2.3971   -3.7192 S   0  0  0  0  0  0  0  0  0  0  0  0
   10.2178   -0.8488   -3.4637 C   0  0  0  0  0  0  0  0  0  0  0  0
    9.0151   -0.8850   -3.0444 N   0  0  0  0  0  0  0  0  0  0  0  0
    8.5875   -2.1616   -2.8735 C   0  0  0  0  0  0  0  0  0  0  0  0
    7.3847   -2.6986   -2.4434 C   0  0  0  0  0  0  0  0  0  0  0  0
    6.2237   -2.0058   -2.0480 C   0  0  0  0  0  0  0  0  0  0  0  0
    4.7796   -2.8499   -1.5141 S   0  0  0  0  0  0  0  0  0  0  0  0
    5.9998   -0.6440   -1.9990 C   0  0  0  0  0  0  0  0  0  0  0  0
    6.9011    0.7898   -2.3520 S   0  0  0  0  0  0  0  0  0  0  0  0
    5.4795    1.7088   -1.8626 C   0  0  0  0  0  0  0  0  0  0  0  0
    4.4565    1.0441   -1.4822 N   0  0  0  0  0  0  0  0  0  0  0  0
    4.7029   -0.2886   -1.5425 C   0  0  0  0  0  0  0  0  0  0  0  0
    3.8888   -1.3747   -1.2254 C   0  0  0  0  0  0  0  0  0  0  0  0
    2.5771   -1.2852   -0.7414 C   0  0  0  0  0  0  0  0  0  0  0  0
    1.9053    0.2992   -0.5093 S   0  0  0  0  0  0  0  0  0  0  0  0
    0.4006   -0.3429    0.0898 C   0  0  0  0  0  0  0  0  0  0  0  0
    0.4231   -1.7514    0.0969 C   0  0  0  0  0  0  0  0  0  0  0  0
    1.6558   -2.2828   -0.3769 C   0  0  0  0  0  0  0  0  0  0  0  0
    1.8265   -3.6775   -0.4351 C   0  0  0  0  0  0  0  0  0  0  0  0
    0.8267   -4.5228   -0.0425 C   0  0  0  0  0  0  0  0  0  0  0  0
    0.9797   -6.0079   -0.0964 C   0  0  0  0  0  0  0  0  0  0  0  0
   -0.4054   -3.9836    0.4334 C   0  0  0  0  0  0  0  0  0  0  0  0
   -1.3286   -4.9105    0.7967 O   0  0  0  0  0  0  0  0  0  0  0  0
   -2.5756   -4.4686    1.2773 C   0  0  0  0  0  0  0  0  0  0  0  0
   -0.6002   -2.6253    0.4999 C   0  0  0  0  0  0  0  0  0  0  0  0
   -0.6046    0.5546    0.4835 C   0  0  0  0  0  0  0  0  0  0  0  0
   -2.1467    0.0772    1.1848 S   0  0  0  0  0  0  0  0  0  0  0  0
   -0.5746    1.9391    0.4169 C   0  0  0  0  0  0  0  0  0  0  0  0
    0.5700    3.1153   -0.1356 S   0  0  0  0  0  0  0  0  0  0  0  0
   -0.5932    4.3525    0.3289 C   0  0  0  0  0  0  0  0  0  0  0  0
   -1.6946    3.9516    0.8333 N   0  0  0  0  0  0  0  0  0  0  0  0
   -1.7350    2.5963    0.9051 C   0  0  0  0  0  0  0  0  0  0  0  0
   -2.7065    1.7200    1.3757 C   0  0  0  0  0  0  0  0  0  0  0  0
   -3.9547    2.0269    1.9376 C   0  0  0  0  0  0  0  0  0  0  0  0
   -5.0360    0.7718    2.5199 S   0  0  0  0  0  0  0  0  0  0  0  0
   -4.5358    3.2647    2.1436 C   0  0  0  0  0  0  0  0  0  0  0  0
   -4.1052    4.9127    1.8490 S   0  0  0  0  0  0  0  0  0  0  0  0
   -5.6556    5.3592    2.5584 C   0  0  0  0  0  0  0  0  0  0  0  0
   -6.4093    4.4138    2.9683 N   0  0  0  0  0  0  0  0  0  0  0  0
   -5.8196    3.2079    2.7549 C   0  0  0  0  0  0  0  0  0  0  0  0
   -6.2469    1.9177    3.0325 C   0  0  0  0  0  0  0  0  0  0  0  0
   -7.4571    1.5228    3.6383 C   0  0  0  0  0  0  0  0  0  0  0  0
   -8.6535    2.7075    4.1195 S   0  0  0  0  0  0  0  0  0  0  0  0
   -7.9117    0.2636    3.9537 C   0  0  0  0  0  0  0  0  0  0  0  0
   -7.3172   -1.3533    3.7980 S   0  0  0  0  0  0  0  0  0  0  0  0
   -8.8198   -1.8895    4.5637 C   0  0  0  0  0  0  0  0  0  0  0  0
   -9.6592   -0.9958    4.8949 N   0  0  0  0  0  0  0  0  0  0  0  0
   -9.2032    0.2507    4.5754 C   0  0  0  0  0  0  0  0  0  0  0  0
   -9.7235    1.5066    4.7266 C   0  0  0  0  0  0  0  0  0  0  0  0
    9.6300   -5.3658   -3.1786 H   0  0  0  0  0  0  0  0  0  0  0  0
   10.7480    0.0612   -3.6634 H   0  0  0  0  0  0  0  0  0  0  0  0
    5.5032    2.7803   -1.8939 H   0  0  0  0  0  0  0  0  0  0  0  0
    2.7570   -4.0858   -0.7971 H   0  0  0  0  0  0  0  0  0  0  0  0
    0.2000   -6.4399   -0.7215 H   0  0  0  0  0  0  0  0  0  0  0  0
    1.9530   -6.2825   -0.4926 H   0  0  0  0  0  0  0  0  0  0  0  0
    0.8641   -6.4304    0.9005 H   0  0  0  0  0  0  0  0  0  0  0  0
   -2.4675   -3.8740    2.1896 H   0  0  0  0  0  0  0  0  0  0  0  0
   -3.1110   -3.8806    0.5255 H   0  0  0  0  0  0  0  0  0  0  0  0
   -3.1413   -5.3720    1.4994 H   0  0  0  0  0  0  0  0  0  0  0  0
   -1.5303   -2.2177    0.8550 H   0  0  0  0  0  0  0  0  0  0  0  0
   -0.3558    5.3876    0.1819 H   0  0  0  0  0  0  0  0  0  0  0  0
   -5.9259    6.3946    2.6301 H   0  0  0  0  0  0  0  0  0  0  0  0
   -8.9755   -2.9385    4.7232 H   0  0  0  0  0  0  0  0  0  0  0  0
  -10.6628    1.7857    5.1568 H   0  0  0  0  0  0  0  0  0  0  0  0
  1  2  1  0  0  0  0
  1  3  2  0  0  0  0
  3  4  1  0  0  0  0
  4  5  1  0  0  0  0
  5  6  2  0  0  0  0
  6  7  1  0  0  0  0
  7  8  2  0  0  0  0
  8  9  1  0  0  0  0
  9 10  1  0  0  0  0
  9 11  2  0  0  0  0
 11 12  1  0  0  0  0
 12 13  1  0  0  0  0
 13 14  2  0  0  0  0
 14 15  1  0  0  0  0
 15 16  2  0  0  0  0
 16 17  1  0  0  0  0
 17 18  1  0  0  0  0
 18 19  1  0  0  0  0
 19 20  2  0  0  0  0
 20 21  1  0  0  0  0
 21 22  1  0  0  0  0
 22 23  2  0  0  0  0
 23 24  1  0  0  0  0
 23 25  1  0  0  0  0
 25 26  1  0  0  0  0
 26 27  1  0  0  0  0
 25 28  2  0  0  0  0
 19 29  1  0  0  0  0
 29 30  1  0  0  0  0
 29 31  2  0  0  0  0
 31 32  1  0  0  0  0
 32 33  1  0  0  0  0
 33 34  2  0  0  0  0
 34 35  1  0  0  0  0
 35 36  2  0  0  0  0
 36 37  1  0  0  0  0
 37 38  1  0  0  0  0
 37 39  2  0  0  0  0
 39 40  1  0  0  0  0
 40 41  1  0  0  0  0
 41 42  2  0  0  0  0
 42 43  1  0  0  0  0
 43 44  2  0  0  0  0
 44 45  1  0  0  0  0
 45 46  1  0  0  0  0
 45 47  2  0  0  0  0
 47 48  1  0  0  0  0
 48 49  1  0  0  0  0
 49 50  2  0  0  0  0
 50 51  1  0  0  0  0
 51 52  2  0  0  0  0
  8  2  1  0  0  0  0
 16 10  1  0  0  0  0
 21 17  2  0  0  0  0
 36 30  1  0  0  0  0
 44 38  1  0  0  0  0
 52 46  1  0  0  0  0
  7  3  1  0  0  0  0
 15 11  1  0  0  0  0
 28 20  1  0  0  0  0
 35 31  1  0  0  0  0
 43 39  1  0  0  0  0
 51 47  1  0  0  0  0
  1 53  1  0  0  0  0
  5 54  1  0  0  0  0
 13 55  1  0  0  0  0
 22 56  1  0  0  0  0
 24 57  1  0  0  0  0
 24 58  1  0  0  0  0
 24 59  1  0  0  0  0
 27 60  1  0  0  0  0
 27 61  1  0  0  0  0
 27 62  1  0  0  0  0
 28 63  1  0  0  0  0
 33 64  1  0  0  0  0
 41 65  1  0  0  0  0
 49 66  1  0  0  0  0
 52 67  1  0  0  0  0
M  END
