
  xtb     03042204123D
 energy: -159.291964290470 gnorm: 0.000411040491 xtb: 6.4.1 (unknown)
 90101  0     0  0            999 V2000
   -5.1811   -0.3580    3.8421 C   0  0  0  0  0  0  0  0  0  0  0  0
   -4.4820   -1.4175    4.3295 N   0  0  0  0  0  0  0  0  0  0  0  0
   -3.2531   -1.5170    3.7610 C   0  0  0  0  0  0  0  0  0  0  0  0
   -3.1454   -0.4588    2.8435 C   0  0  0  0  0  0  0  0  0  0  0  0
   -4.3814    0.2818    2.9080 C   0  0  0  0  0  0  0  0  0  0  0  0
   -4.5663    1.3876    2.1540 N   0  0  0  0  0  0  0  0  0  0  0  0
   -3.5561    1.7045    1.3885 C   0  0  0  0  0  0  0  0  0  0  0  0
   -2.3515    0.9635    1.3142 C   0  0  0  0  0  0  0  0  0  0  0  0
   -2.1309   -0.1145    2.0326 N   0  0  0  0  0  0  0  0  0  0  0  0
   -2.2534   -2.4729    4.0480 C   0  0  0  0  0  0  0  0  0  0  0  0
   -1.0774   -2.4095    3.3607 N   0  0  0  0  0  0  0  0  0  0  0  0
   -0.1824   -3.3698    3.7431 C   0  0  0  0  0  0  0  0  0  0  0  0
   -0.8274   -4.1171    4.7560 C   0  0  0  0  0  0  0  0  0  0  0  0
   -2.1393   -3.5457    4.9430 C   0  0  0  0  0  0  0  0  0  0  0  0
   -3.0117   -4.0302    5.8411 N   0  0  0  0  0  0  0  0  0  0  0  0
   -2.5729   -5.0608    6.5261 C   0  0  0  0  0  0  0  0  0  0  0  0
   -1.2934   -5.6266    6.3366 C   0  0  0  0  0  0  0  0  0  0  0  0
   -0.4234   -5.1720    5.4666 N   0  0  0  0  0  0  0  0  0  0  0  0
    1.0799   -3.4828    3.1229 C   0  0  0  0  0  0  0  0  0  0  0  0
    1.3924   -2.6977    2.0450 N   0  0  0  0  0  0  0  0  0  0  0  0
    2.6486   -2.9252    1.5454 C   0  0  0  0  0  0  0  0  0  0  0  0
    3.2043   -3.9334    2.3618 C   0  0  0  0  0  0  0  0  0  0  0  0
    2.2167   -4.2852    3.3523 C   0  0  0  0  0  0  0  0  0  0  0  0
    2.4573   -5.2134    4.2841 N   0  0  0  0  0  0  0  0  0  0  0  0
    3.6382   -5.7776    4.2162 C   0  0  0  0  0  0  0  0  0  0  0  0
    4.5972   -5.4475    3.2336 C   0  0  0  0  0  0  0  0  0  0  0  0
    4.3958   -4.5361    2.3130 N   0  0  0  0  0  0  0  0  0  0  0  0
    3.1045   -2.2196    0.4144 C   0  0  0  0  0  0  0  0  0  0  0  0
    2.2621   -1.3885   -0.2718 N   0  0  0  0  0  0  0  0  0  0  0  0
    2.8416   -0.7530   -1.3370 C   0  0  0  0  0  0  0  0  0  0  0  0
    4.1826   -1.2004   -1.3489 C   0  0  0  0  0  0  0  0  0  0  0  0
    4.3459   -2.1231   -0.2507 C   0  0  0  0  0  0  0  0  0  0  0  0
    5.5172   -2.7092    0.0062 N   0  0  0  0  0  0  0  0  0  0  0  0
    6.4933   -2.3979   -0.8119 C   0  0  0  0  0  0  0  0  0  0  0  0
    6.3365   -1.5059   -1.8919 C   0  0  0  0  0  0  0  0  0  0  0  0
    5.2010   -0.9052   -2.1648 N   0  0  0  0  0  0  0  0  0  0  0  0
    2.0562    0.1244   -2.1093 C   0  0  0  0  0  0  0  0  0  0  0  0
    0.3715    0.2756   -1.6699 S   0  0  0  0  0  0  0  0  0  0  0  0
    0.0283    1.4418   -2.9138 C   0  0  0  0  0  0  0  0  0  0  0  0
    1.1968    1.6962   -3.6496 C   0  0  0  0  0  0  0  0  0  0  0  0
    2.3319    0.9518   -3.2045 C   0  0  0  0  0  0  0  0  0  0  0  0
    3.5676    1.1057   -3.8614 C   0  0  0  0  0  0  0  0  0  0  0  0
    3.6866    1.9565   -4.9218 C   0  0  0  0  0  0  0  0  0  0  0  0
    4.9839    2.1411   -5.6407 C   0  0  0  0  0  0  0  0  0  0  0  0
    2.5462    2.6893   -5.3750 C   0  0  0  0  0  0  0  0  0  0  0  0
    2.7811    3.4959   -6.4458 O   0  0  0  0  0  0  0  0  0  0  0  0
    1.7198    4.2653   -6.9532 C   0  0  0  0  0  0  0  0  0  0  0  0
    1.3302    2.5587   -4.7552 C   0  0  0  0  0  0  0  0  0  0  0  0
   -1.2589    2.0194   -2.9720 C   0  0  0  0  0  0  0  0  0  0  0  0
   -1.5200    3.5938   -3.6738 S   0  0  0  0  0  0  0  0  0  0  0  0
   -3.1571    3.6367   -3.1794 C   0  0  0  0  0  0  0  0  0  0  0  0
   -3.5276    2.4919   -2.5123 C   0  0  0  0  0  0  0  0  0  0  0  0
   -2.4549    1.5479   -2.4078 C   0  0  0  0  0  0  0  0  0  0  0  0
   -2.7267    0.2920   -1.8273 C   0  0  0  0  0  0  0  0  0  0  0  0
   -3.9552    0.0058   -1.3085 C   0  0  0  0  0  0  0  0  0  0  0  0
   -4.2633   -1.3216   -0.6935 C   0  0  0  0  0  0  0  0  0  0  0  0
   -4.9965    0.9898   -1.3423 C   0  0  0  0  0  0  0  0  0  0  0  0
   -6.1539    0.5956   -0.7484 O   0  0  0  0  0  0  0  0  0  0  0  0
   -7.1813    1.5427   -0.5964 C   0  0  0  0  0  0  0  0  0  0  0  0
   -4.7935    2.1972   -1.9493 C   0  0  0  0  0  0  0  0  0  0  0  0
   -6.1695   -0.1255    4.1798 H   0  0  0  0  0  0  0  0  0  0  0  0
   -4.8030   -2.0643    5.0346 H   0  0  0  0  0  0  0  0  0  0  0  0
   -3.6705    2.5935    0.7832 H   0  0  0  0  0  0  0  0  0  0  0  0
   -1.5576    1.2731    0.6490 H   0  0  0  0  0  0  0  0  0  0  0  0
   -0.9590   -1.6625    2.6840 H   0  0  0  0  0  0  0  0  0  0  0  0
   -3.2540   -5.4701    7.2602 H   0  0  0  0  0  0  0  0  0  0  0  0
   -0.9817   -6.4812    6.9207 H   0  0  0  0  0  0  0  0  0  0  0  0
    0.7620   -2.0055    1.6764 H   0  0  0  0  0  0  0  0  0  0  0  0
    3.8516   -6.5278    4.9656 H   0  0  0  0  0  0  0  0  0  0  0  0
    5.5560   -5.9470    3.2079 H   0  0  0  0  0  0  0  0  0  0  0  0
    1.2839   -1.2613   -0.0700 H   0  0  0  0  0  0  0  0  0  0  0  0
    7.4488   -2.8647   -0.6167 H   0  0  0  0  0  0  0  0  0  0  0  0
    7.1653   -1.2759   -2.5478 H   0  0  0  0  0  0  0  0  0  0  0  0
    4.4118    0.5338   -3.5091 H   0  0  0  0  0  0  0  0  0  0  0  0
    5.7580    1.5243   -5.1936 H   0  0  0  0  0  0  0  0  0  0  0  0
    4.8711    1.8747   -6.6905 H   0  0  0  0  0  0  0  0  0  0  0  0
    5.2876    3.1861   -5.6033 H   0  0  0  0  0  0  0  0  0  0  0  0
    0.9058    3.6335   -7.3233 H   0  0  0  0  0  0  0  0  0  0  0  0
    1.3268    4.9547   -6.1989 H   0  0  0  0  0  0  0  0  0  0  0  0
    2.1383    4.8354   -7.7812 H   0  0  0  0  0  0  0  0  0  0  0  0
    0.4648    3.0959   -5.1034 H   0  0  0  0  0  0  0  0  0  0  0  0
   -3.7541    4.4958   -3.4098 H   0  0  0  0  0  0  0  0  0  0  0  0
   -1.9624   -0.4687   -1.8077 H   0  0  0  0  0  0  0  0  0  0  0  0
   -5.0598   -1.8152   -1.2483 H   0  0  0  0  0  0  0  0  0  0  0  0
   -4.6199   -1.1862    0.3265 H   0  0  0  0  0  0  0  0  0  0  0  0
   -3.3834   -1.9596   -0.6853 H   0  0  0  0  0  0  0  0  0  0  0  0
   -7.9667    1.0380   -0.0365 H   0  0  0  0  0  0  0  0  0  0  0  0
   -7.5778    1.8670   -1.5644 H   0  0  0  0  0  0  0  0  0  0  0  0
   -6.8348    2.4125   -0.0303 H   0  0  0  0  0  0  0  0  0  0  0  0
   -5.5682    2.9436   -2.0197 H   0  0  0  0  0  0  0  0  0  0  0  0
  1  2  1  0  0  0  0
  2  3  1  0  0  0  0
  3  4  2  0  0  0  0
  4  5  1  0  0  0  0
  5  6  1  0  0  0  0
  6  7  2  0  0  0  0
  7  8  1  0  0  0  0
  8  9  2  0  0  0  0
  3 10  1  0  0  0  0
 10 11  1  0  0  0  0
 11 12  1  0  0  0  0
 12 13  2  0  0  0  0
 13 14  1  0  0  0  0
 14 15  1  0  0  0  0
 15 16  2  0  0  0  0
 16 17  1  0  0  0  0
 17 18  2  0  0  0  0
 12 19  1  0  0  0  0
 19 20  1  0  0  0  0
 20 21  1  0  0  0  0
 21 22  2  0  0  0  0
 22 23  1  0  0  0  0
 23 24  1  0  0  0  0
 24 25  2  0  0  0  0
 25 26  1  0  0  0  0
 26 27  2  0  0  0  0
 21 28  1  0  0  0  0
 28 29  1  0  0  0  0
 29 30  1  0  0  0  0
 30 31  2  0  0  0  0
 31 32  1  0  0  0  0
 32 33  1  0  0  0  0
 33 34  2  0  0  0  0
 34 35  1  0  0  0  0
 35 36  2  0  0  0  0
 30 37  1  0  0  0  0
 37 38  1  0  0  0  0
 38 39  1  0  0  0  0
 39 40  2  0  0  0  0
 40 41  1  0  0  0  0
 41 42  1  0  0  0  0
 42 43  2  0  0  0  0
 43 44  1  0  0  0  0
 43 45  1  0  0  0  0
 45 46  1  0  0  0  0
 46 47  1  0  0  0  0
 45 48  2  0  0  0  0
 39 49  1  0  0  0  0
 49 50  1  0  0  0  0
 50 51  1  0  0  0  0
 51 52  2  0  0  0  0
 52 53  1  0  0  0  0
 53 54  1  0  0  0  0
 54 55  2  0  0  0  0
 55 56  1  0  0  0  0
 55 57  1  0  0  0  0
 57 58  1  0  0  0  0
 58 59  1  0  0  0  0
 57 60  2  0  0  0  0
  5  1  2  0  0  0  0
 14 10  2  0  0  0  0
 23 19  2  0  0  0  0
 32 28  2  0  0  0  0
 41 37  2  0  0  0  0
 53 49  2  0  0  0  0
  9  4  1  0  0  0  0
 18 13  1  0  0  0  0
 27 22  1  0  0  0  0
 36 31  1  0  0  0  0
 48 40  1  0  0  0  0
 60 52  1  0  0  0  0
  1 61  1  0  0  0  0
  2 62  1  0  0  0  0
  7 63  1  0  0  0  0
  8 64  1  0  0  0  0
 11 65  1  0  0  0  0
 16 66  1  0  0  0  0
 17 67  1  0  0  0  0
 20 68  1  0  0  0  0
 25 69  1  0  0  0  0
 26 70  1  0  0  0  0
 29 71  1  0  0  0  0
 34 72  1  0  0  0  0
 35 73  1  0  0  0  0
 42 74  1  0  0  0  0
 44 75  1  0  0  0  0
 44 76  1  0  0  0  0
 44 77  1  0  0  0  0
 47 78  1  0  0  0  0
 47 79  1  0  0  0  0
 47 80  1  0  0  0  0
 48 81  1  0  0  0  0
 51 82  1  0  0  0  0
 54 83  1  0  0  0  0
 56 84  1  0  0  0  0
 56 85  1  0  0  0  0
 56 86  1  0  0  0  0
 59 87  1  0  0  0  0
 59 88  1  0  0  0  0
 59 89  1  0  0  0  0
 60 90  1  0  0  0  0
M  END
