246

C          4.29930       -8.01260        8.78630
C          3.94260       -6.78760        8.35160
C          3.31560       -6.81520        7.07050
C          2.82110       -5.73790        6.32580
C          2.93430       -4.33890        6.76530
C          4.17450       -3.76730        7.02690
C          4.29040       -2.42800        7.35410
C          3.16210       -1.62410        7.45330
S          3.12240        0.09060        7.85600
C          4.87450        0.59540        7.91230
C          5.48100        0.73690        6.52940
C          1.91980       -2.22540        7.23560
F          0.81290       -1.48330        7.40200
C          1.79300       -3.54690        6.87640
C          2.22980       -6.04200        5.10950
C          2.15080       -7.35610        4.58930
C          2.65380       -8.43590        5.33240
C          2.59330       -9.80080        4.79510
C          2.02660      -10.84540        5.52180
C          1.90970      -12.10160        4.96620
C          2.37200      -12.37470        3.67970
S          2.16440      -14.02240        3.07400
C          1.77480      -13.80690        1.29650
C          0.56250      -12.92550        1.07390
C          2.99560      -11.33750        2.99240
C          3.08940      -10.06740        3.52270
F          3.53500      -11.53790        1.76950
C          3.20540       -8.13620        6.56950
S          3.90150       -9.28630        7.68240
C          1.53150       -7.37580        3.31350
C          1.17890       -6.13930        2.86090
S          1.55960       -4.87300        4.00640
C          0.60330       -5.80590        1.59990
C          0.25590       -4.57200        1.13600
C         -0.24150       -4.58690       -0.19190
C         -0.63120       -3.48740       -0.97740
C         -0.55040       -2.13710       -0.39020
C          0.36370       -1.20540       -0.87250
C          0.50620        0.01490       -0.24020
C         -0.27890        0.34830        0.85130
S         -0.07260        1.93990        1.63300
C         -1.20770        2.92450        0.58630
C         -2.65110        2.48270        0.70650
C         -1.20130       -0.57970        1.31640
F         -1.99050       -0.28420        2.35840
C         -1.33360       -1.81670        0.71350
C         -1.04670       -3.75600       -2.27050
C         -1.07090       -5.07240       -2.80040
C         -0.65110       -6.16890       -2.02930
C         -0.61320       -7.52250       -2.59300
C         -1.20260       -8.59940       -1.93460
C         -1.19230       -9.85650       -2.50140
C         -0.57710      -10.09240       -3.72800
S         -0.63690      -11.72960       -4.39510
C         -1.07730      -11.41610       -6.14700
C         -2.36780      -10.63450       -6.27430
C          0.06400       -9.02000       -4.34320
C          0.03230       -7.75070       -3.80490
F          0.75000       -9.19060       -5.49130
C         -0.26270       -5.89720       -0.72980
S          0.32330       -7.06990        0.41750
C         -1.60030       -5.11340       -4.10760
C         -1.97190       -3.89180       -4.59890
S         -1.65730       -2.60520       -3.44110
C         -2.56590       -3.68600       -5.87350
S         -3.27780       -2.17270       -6.38610
C         -3.83140       -2.81600       -7.91180
C         -3.43340       -4.15750       -8.01220
C         -2.73450       -4.62990       -6.87100
S         -2.27510       -6.29420       -7.04120
C         -3.01130       -6.34370       -8.63600
C         -2.94490       -7.61600       -9.34960
O         -2.44470       -8.59520       -8.83880
C         -3.53660       -7.62510      -10.74540
C         -3.40270       -8.99250      -11.40080
C         -3.57540       -5.15450       -9.00160
C         -4.67670       -2.21230       -8.86730
C         -5.20140       -0.96440       -9.02400
C         -4.94780        0.26880       -8.38840
S         -3.55760        0.67170       -7.41040
C         -4.05440        2.33130       -7.18970
C         -5.25900        2.55970       -7.85490
C         -5.72730        1.40670       -8.53420
S         -7.21190        1.70630       -9.37270
C         -7.20270        3.37420       -8.81160
C         -8.26590        4.31900       -9.16690
O         -8.24700        5.45840       -8.75480
C         -9.35310        3.76970      -10.06250
C        -10.41540        4.81240      -10.37800
C         -6.12070        3.66480       -8.03060
C         -3.31230        3.22100       -6.38640
C         -2.09230        2.90280       -5.88630
C         -1.36300        3.63560       -4.91760
C         -1.72520        4.71970       -4.16290
C         -0.81760        5.01280       -3.11820
C         -0.96590        5.97900       -2.10490
C         -2.05130        6.96420       -2.16270
C         -2.24620        7.73030       -3.31220
C         -3.26500        8.65520       -3.37540
C         -4.13140        8.85850       -2.30120
S         -5.36430       10.10890       -2.49750
C         -6.83260        9.45880       -1.61780
C         -7.28230        8.12230       -2.17240
C         -3.91110        8.10180       -1.15410
F         -4.68770        8.25650       -0.05970
C         -2.90190        7.16290       -1.08100
C         -0.06830        5.91050       -1.05150
C          1.01050        4.99150       -1.01840
C          1.24140        4.11700       -2.09560
C          2.42310        3.24960       -2.11940
C          3.67470        3.76610       -1.78680
C          4.80600        2.97510       -1.80280
C          4.73160        1.63010       -2.14930
S          6.09070        0.50730       -2.16610
C          7.55310        1.59190       -2.30660
C          7.61000        2.30800       -3.64200
C          3.47380        1.12470       -2.47850
C          2.33960        1.90570       -2.47930
F          3.35190       -0.17940       -2.80080
C          0.27880        4.11110       -3.09380
S          0.18850        2.98660       -4.41950
C          1.65960        4.99010        0.24080
C          1.13240        5.87700        1.13000
S         -0.14550        6.84420        0.42490
C          1.38590        5.86680        2.54150
C          1.58720        4.71660        3.23910
C          1.68850        4.91220        4.63810
C          1.81680        3.91670        5.61640
C          1.83970        2.51250        5.17570
C          2.83370        2.07040        4.30990
C          2.78660        0.80780        3.75120
C          1.72560       -0.04270        4.02740
S          1.47980       -1.63070        3.30410
C          3.08070       -2.02480        2.52320
C          4.16320       -2.30740        3.54680
C          0.73920        0.40760        4.90650
F         -0.31310       -0.38570        5.15370
C          0.79270        1.65320        5.49290
C          1.84750        4.34440        6.93160
C          1.77700        5.71390        7.29490
C          1.63450        6.70660        6.31260
C          1.55620        8.13190        6.65990
C          0.51520        8.92900        6.18840
C          0.46250       10.27070        6.49980
C          1.43870       10.87010        7.29240
S          1.24650       12.59020        7.66320
C          2.94350       13.26070        7.50610
C          3.52840       13.00530        6.13160
C          2.45950       10.05730        7.77500
C          2.53290        8.71560        7.45980
F          3.42610       10.55910        8.57700
C          1.56740        6.27490        4.99540
S          1.33370        7.27660        3.58010
C          1.81350        5.87450        8.71230
C          1.92650        4.70280        9.37090
S          1.99070        3.31910        8.33340
H          4.77940       -8.27110        9.71000
H          4.09900       -5.88140        8.90840
H          5.06600       -4.37180        6.94630
H          5.27180       -2.02050        7.53550
H          4.83990        1.56090        8.41700
H          5.42110       -0.10680        8.54010
H          6.50320        1.10300        6.60710
H          4.89770        1.44060        5.94020
H          5.49310       -0.21790        6.00810
H          0.80910       -3.95270        6.70360
H          1.64280      -10.66090        6.51320
H          1.44450      -12.90190        5.52010
H          2.65480      -13.42570        0.78350
H          1.58410      -14.82690        0.96270
H          0.75200      -11.90800        1.41070
H         -0.29790      -13.31450        1.61460
H          0.32620      -12.89420        0.01200
H          3.58060       -9.29930        2.94520
H          1.34740       -8.27240        2.74910
H          0.35730       -3.67800        1.72620
H          0.98560       -1.45030       -1.72020
H          1.24230        0.72770       -0.57770
H         -1.07710        3.94200        0.95210
H         -0.84910        2.86120       -0.44190
H         -2.95820        2.46860        1.74970
H         -3.29180        3.17180        0.15890
H         -2.78750        1.48580        0.29130
H         -2.04840       -2.52090        1.11030
H         -1.70460       -8.44180       -0.99260
H         -1.67530      -10.68340       -2.00450
H         -0.24780      -10.90720       -6.63160
H         -1.17500      -12.41660       -6.56780
H         -2.56860      -10.43590       -7.32410
H         -2.29120       -9.67480       -5.76550
H         -3.20000      -11.18910       -5.84540
H          0.54330       -6.95310       -4.32160
H         -1.74190       -6.03100       -4.64620
H         -4.58870       -7.33830      -10.67310
H         -3.02370       -6.86470      -11.33920
H         -3.92210       -9.74370      -10.81110
H         -3.82370       -8.97750      -12.40270
H         -2.35560       -9.27780      -11.46170
H         -4.06820       -4.99770       -9.94380
H         -5.01990       -2.93250       -9.60100
H         -5.96400       -0.87330       -9.79070
H         -8.88400        3.40700      -10.98140
H         -9.79830        2.90390       -9.56420
H         -9.96460        5.66780      -10.87450
H        -10.87980        5.16340       -9.46000
H        -11.18200        4.39210      -11.02370
H         -5.96740        4.64150       -7.60890
H         -3.77320        4.17270       -6.16360
H         -1.64430        1.96610       -6.19470
H         -2.64720        5.25400       -4.30250
H         -1.58280        7.60420       -4.15450
H         -3.41210        9.24650       -4.26590
H         -7.58410       10.22890       -1.79230
H         -6.61680        9.40880       -0.55310
H         -7.46200        8.19310       -3.24310
H         -8.20410        7.81530       -1.68250
H         -6.53000        7.35540       -1.99700
H         -2.79820        6.58940       -0.17340
H          3.76670        4.81070       -1.53080
H          5.75250        3.41590       -1.53420
H          8.38980        0.90150       -2.19960
H          7.56380        2.28110       -1.46310
H          8.51890        2.90330       -3.70390
H          6.75340        2.96700       -3.76940
H          7.61100        1.58590       -4.45510
H          1.40020        1.45120       -2.75020
H          2.44790        4.30770        0.49970
H          1.59490        3.74620        2.77900
H          3.65070        2.73170        4.05760
H          3.56810        0.50910        3.07150
H          2.86700       -2.91500        1.93170
H          3.34340       -1.21530        1.84320
H          5.09530       -2.55540        3.04260
H          4.32910       -1.44320        4.18610
H          3.87150       -3.14350        4.17820
H         -0.00020        1.95750        6.15680
H         -0.26190        8.49090        5.58170
H         -0.34410       10.88520        6.13170
H          3.56390       12.84600        8.29750
H          2.80740       14.32740        7.68400
H          3.65630       11.93860        5.95610
H          4.50160       13.48580        6.05260
H          2.87600       13.40580        5.35850
H          3.36140        8.13650        7.83810
H          1.73900        6.82830        9.20220
H          1.97190        4.54880       10.43150
