236

C         -8.99290       -8.14560       14.61280
C         -9.33250       -6.89420       14.24370
C         -8.75340       -6.50330       12.99920
C         -8.89810       -5.28120       12.32360
C         -9.76610       -4.21570       12.84070
C        -11.08980       -4.47390       13.18430
C        -11.90900       -3.47570       13.67520
C        -11.42800       -2.18370       13.85380
S        -12.36270       -0.82220       14.46880
C        -13.79220       -1.60490       15.29330
C        -13.39060       -2.36270       16.54440
C        -10.10380       -1.93530       13.48830
F         -9.60620       -0.69250       13.64020
C         -9.28030       -2.91830       12.98790
C         -8.18110       -5.13370       11.14510
C         -7.36200       -6.16050       10.61740
C         -7.24090       -7.39730       11.27240
C         -6.40650       -8.45500       10.68980
C         -6.54020       -8.80270        9.34700
C         -5.69710       -9.72020        8.75100
C         -4.68690      -10.33470        9.48330
S         -3.49520      -11.46140        8.84820
C         -3.88880      -11.60600        7.07170
C         -5.03780      -12.55990        6.80560
C         -4.59540      -10.01260       10.84020
C         -5.42570       -9.09590       11.44400
F         -3.63840      -10.60190       11.58640
C         -7.93160       -7.52780       12.46740
S         -7.94420       -8.94130       13.49030
C         -6.71800       -5.75860        9.42440
C         -7.05240       -4.50210        9.01080
S         -8.17910       -3.72870       10.10550
C         -6.56090       -3.88150        7.82150
C         -5.65960       -4.44920        6.96770
C         -5.35600       -3.65240        5.84160
C         -4.45040       -3.95110        4.80930
C         -3.80550       -5.26610        4.73680
C         -2.43890       -5.40500        4.51370
C         -1.84560       -6.65110        4.45420
C         -2.59740       -7.80950        4.61530
S         -1.95650       -9.45070        4.58300
C         -0.37550       -9.28350        3.68670
C         -0.57480       -8.89380        2.23490
C         -3.96430       -7.65510        4.84820
F         -4.72820       -8.75540        5.03540
C         -4.57040       -6.42200        4.89990
C         -4.23260       -2.95030        3.87680
C         -4.91800       -1.70870        3.89690
C         -5.84820       -1.42820        4.91330
C         -6.54980       -0.14030        4.97110
C         -5.84530        1.06140        4.90840
C         -6.51030        2.26730        4.95140
C         -7.89850        2.32770        5.06260
S         -8.63050        3.93570        5.14000
C        -10.16390        3.77900        4.15180
C         -9.87970        3.33670        2.73040
C         -8.58470        1.12110        5.16170
C         -7.93270       -0.09450        5.10820
F         -9.92700        1.09710        5.30820
C         -6.04420       -2.41480        5.86860
S         -7.07970       -2.30310        7.27230
C         -4.55170       -0.88920        2.79730
C         -3.60220       -1.44550        1.99450
S         -3.13570       -3.04960        2.52670
C         -2.93510       -0.87070        0.87290
C         -1.80720       -1.34190        0.27190
C         -1.32120       -0.50760       -0.76540
C         -0.16150       -0.68660       -1.53790
C          0.65880       -1.89510       -1.40060
C          2.03910       -1.81990       -1.24200
C          2.80830       -2.95900       -1.09870
C          2.22240       -4.21980       -1.11370
S          3.07800       -5.74570       -0.93070
C          4.84130       -5.25460       -1.00010
C          5.69460       -6.50860       -1.02920
C          0.83640       -4.28130       -1.27600
F          0.23440       -5.48890       -1.29260
C          0.06000       -3.15530       -1.41980
C          0.15960        0.33920       -2.41540
C         -0.66280        1.47600       -2.60590
C         -1.85210        1.62660       -1.87370
C         -2.74870        2.76360       -2.11260
C         -3.22950        3.54960       -1.06750
C         -4.08350        4.60230       -1.31730
C         -4.48690        4.92160       -2.61280
S         -5.54340        6.32620       -2.80580
C         -6.70980        5.83840       -4.13100
C         -7.47080        4.57560       -3.78170
C         -3.97880        4.14350       -3.64870
C         -3.13900        3.07450       -3.41210
F         -4.28780        4.41230       -4.93780
C         -2.12900        0.64450       -0.93490
S         -3.48460        0.63560        0.16590
C         -0.09710        2.39080       -3.53370
C          1.08840        1.97700       -4.05430
S          1.57550        0.41400       -3.42850
C          1.97590        2.67720       -4.94260
S          3.67850        2.62700       -4.61950
C          4.01340        3.67210       -5.95920
C          2.86500        3.99130       -6.64030
C          1.70010        3.45110       -6.04550
C          0.34410        3.64720       -6.65460
F          0.01130        2.49910       -7.37320
C          0.32630        4.84290       -7.59860
C          1.49170        4.76100       -8.57950
C          2.81840        4.88660       -7.84180
F          2.98670        6.20650       -7.42910
C          5.36710        4.09190       -6.22110
S          6.12480        3.79360       -7.76230
C          7.63610        4.49020       -7.23220
C          7.52320        4.93770       -5.93680
C          6.24520        4.70240       -5.37010
C          5.99950        5.25540       -4.00080
F          4.66060        5.27270       -3.67700
C          6.52640        6.69300       -3.99140
C          8.03550        6.74030       -4.25000
C          8.56500        5.54320       -5.05210
F          8.96690        4.55950       -4.14660
C          8.72520        4.49820       -8.15890
C          8.68400        4.01650       -9.43510
C          9.91360        4.11730      -10.13370
C         10.19310        3.73990      -11.45690
C          9.19060        3.06910      -12.29160
C          8.50610        1.95180      -11.82170
C          7.57460        1.29870      -12.60560
C          7.28990        1.74550      -13.89160
S          6.13020        1.01830      -14.99370
C          5.52200       -0.44360      -14.07210
C          4.54940       -1.20190      -14.95580
C          7.98310        2.86940      -14.34880
F          7.72490        3.33310      -15.58750
C          8.91790        3.52380      -13.58080
C         11.47300        4.01120      -11.92160
C         12.47600        4.61830      -11.12740
C         12.19740        4.99150       -9.80420
C         13.19800        5.64590       -8.95200
C         13.46880        5.17290       -7.66930
C         14.40560        5.79750       -6.87440
C         15.09730        6.92430       -7.31500
S         16.23050        7.67150       -6.18090
C         17.64730        8.17460       -7.22610
C         18.25100        6.99830       -7.96650
C         14.79490        7.40250       -8.58660
C         13.87740        6.77300       -9.40310
F         15.39100        8.51570       -9.06930
C         10.91880        4.72060       -9.34110
S         10.31580        5.11920       -7.75430
C         13.71400        4.71430      -11.82990
C         13.64680        4.21870      -13.08200
S         12.08700        3.60160      -13.50280
H         -9.28830       -8.67390       15.49830
H         -9.96020       -6.24880       14.83080
H        -11.49260       -5.46560       13.04190
H        -12.93380       -3.71340       13.91090
H        -14.31310       -2.23470       14.57310
H        -14.43450       -0.76010       15.54140
H        -14.27420       -2.77360       17.02920
H        -12.71300       -3.17990       16.30560
H        -12.88940       -1.69530       17.24150
H         -8.26020       -2.67130       12.74020
H         -7.32800       -8.35560        8.75900
H         -5.82630       -9.93980        7.70400
H         -4.07110      -10.61080        6.67270
H         -2.96520      -11.98390        6.63350
H         -5.94800      -12.23020        7.30140
H         -5.22500      -12.61330        5.73510
H         -4.79360      -13.55560        7.16890
H         -5.28140       -8.86490       12.48740
H         -6.01790       -6.38480        8.90520
H         -5.19430       -5.39860        7.15190
H         -1.82200       -4.52610        4.40950
H         -0.78160       -6.71200        4.29390
H          0.06570      -10.27700        3.76720
H          0.25770       -8.57960        4.22540
H         -1.19160       -9.63220        1.72810
H          0.38780       -8.83990        1.73040
H         -1.06140       -7.92430        2.15030
H         -5.63830       -6.36760        5.04210
H         -4.76820        1.04570        4.84040
H         -5.96300        3.19570        4.89950
H        -10.57710        4.78740        4.17420
H        -10.84840        3.10430        4.66090
H         -9.46410        2.33080        2.71230
H        -10.80380        3.33630        2.15580
H         -9.17140        4.01170        2.25450
H         -8.51810       -0.99870        5.16970
H         -4.97300        0.08190        2.60800
H         -1.31530       -2.24170        0.59520
H          2.52190       -0.85590       -1.20360
H          3.87240       -2.85390       -0.96620
H          5.06270       -4.65440       -0.11730
H          4.98560       -4.66360       -1.90450
H          6.74740       -6.23780       -1.07120
H          5.45380       -7.11260       -1.90080
H          5.52350       -7.10750       -0.13770
H         -1.00240       -3.26650       -1.57000
H         -2.92240        3.34120       -0.05470
H         -4.45570        5.20690       -0.50510
H         -7.37980        6.69570       -4.19720
H         -6.16500        5.74180       -5.06730
H         -7.98400        4.68960       -2.82910
H         -8.20830        4.36780       -4.55430
H         -6.79820        3.72270       -3.71150
H         -2.80240        2.48300       -4.25010
H         -0.53090        3.35200       -3.73990
H         -0.43540        3.73920       -5.89170
H          0.40270        5.75630       -7.00690
H         -0.62130        4.85140       -8.13840
H          1.47000        3.80190       -9.09910
H          1.42210        5.56170       -9.31650
H          3.66380        4.68820       -8.51330
H          6.49280        4.64130       -3.23470
H          5.98720        7.23970       -4.76850
H          6.28940        7.15330       -3.03200
H          8.28460        7.65700       -4.78350
H          8.57960        6.74390       -3.30400
H          9.47430        5.81610       -5.59380
H          7.78780        3.61430       -9.87320
H          8.72400        1.57000      -10.83560
H          7.07210        0.43390      -12.20470
H          5.03020       -0.09230      -13.16480
H          6.38290       -1.06300      -13.82040
H          4.17610       -2.07710      -14.42850
H          3.70630       -0.56970      -15.22420
H          5.04030       -1.52720      -15.87000
H          9.41200        4.39310      -13.98430
H         12.96160        4.29370       -7.30380
H         14.62150        5.42050       -5.88710
H         18.35210        8.58890       -6.50520
H         17.32800        8.96380       -7.90310
H         19.13450        7.32330       -8.51220
H         18.53870        6.21480       -7.26860
H         17.54110        6.58220       -8.67910
H         13.67090        7.19450      -10.37490
H         14.60950        5.12120      -11.39690
H         14.42960        4.17080      -13.81370
