
  xtb     03042217213D
 energy: -387.576330696720 gnorm: 0.000391341333 xtb: 6.4.1 (unknown)
224245  0     0  0            999 V2000
   -0.4732   -5.0062   10.4655 C   0  0  0  0  0  0  0  0  0  0  0  0
   -0.1060   -4.1187    9.5204 C   0  0  0  0  0  0  0  0  0  0  0  0
   -0.5607   -4.4788    8.2169 C   0  0  0  0  0  0  0  0  0  0  0  0
   -0.3494   -3.8052    7.0088 C   0  0  0  0  0  0  0  0  0  0  0  0
    0.3833   -2.5346    6.9010 C   0  0  0  0  0  0  0  0  0  0  0  0
    1.6945   -2.3785    7.3434 C   0  0  0  0  0  0  0  0  0  0  0  0
    2.3616   -1.1873    7.1467 C   0  0  0  0  0  0  0  0  0  0  0  0
    1.7492   -0.1005    6.5224 C   0  0  0  0  0  0  0  0  0  0  0  0
    2.7052    1.3737    6.3382 S   0  0  0  0  0  0  0  0  0  0  0  0
    2.1417    2.1190    4.7633 C   0  0  0  0  0  0  0  0  0  0  0  0
    2.2412    1.1627    3.5946 C   0  0  0  0  0  0  0  0  0  0  0  0
    0.4199   -0.2540    6.1407 C   0  0  0  0  0  0  0  0  0  0  0  0
   -0.2753    0.7715    5.5983 F   0  0  0  0  0  0  0  0  0  0  0  0
   -0.2494   -1.4487    6.3034 C   0  0  0  0  0  0  0  0  0  0  0  0
   -0.9117   -4.3769    5.8773 C   0  0  0  0  0  0  0  0  0  0  0  0
   -1.6932   -5.5566    5.8909 C   0  0  0  0  0  0  0  0  0  0  0  0
   -1.8914   -6.2387    7.1017 C   0  0  0  0  0  0  0  0  0  0  0  0
   -2.6329   -7.5044    7.1543 C   0  0  0  0  0  0  0  0  0  0  0  0
   -3.6572   -7.7109    8.0762 C   0  0  0  0  0  0  0  0  0  0  0  0
   -4.3183   -8.9190    8.1306 C   0  0  0  0  0  0  0  0  0  0  0  0
   -3.9927   -9.9666    7.2706 C   0  0  0  0  0  0  0  0  0  0  0  0
   -4.9369  -11.4545    7.4178 S   0  0  0  0  0  0  0  0  0  0  0  0
   -3.7184  -12.7940    7.1452 C   0  0  0  0  0  0  0  0  0  0  0  0
   -2.5661  -12.7245    8.1269 C   0  0  0  0  0  0  0  0  0  0  0  0
   -2.9884   -9.7355    6.3358 C   0  0  0  0  0  0  0  0  0  0  0  0
   -2.3075   -8.5366    6.2799 C   0  0  0  0  0  0  0  0  0  0  0  0
   -2.6373  -10.6866    5.4405 F   0  0  0  0  0  0  0  0  0  0  0  0
   -1.3195   -5.6752    8.2356 C   0  0  0  0  0  0  0  0  0  0  0  0
   -1.4035   -6.3315    9.8512 S   0  0  0  0  0  0  0  0  0  0  0  0
   -2.2089   -5.8648    4.5991 C   0  0  0  0  0  0  0  0  0  0  0  0
   -1.7757   -5.0151    3.6323 C   0  0  0  0  0  0  0  0  0  0  0  0
   -0.7276   -3.7542    4.2647 S   0  0  0  0  0  0  0  0  0  0  0  0
   -2.0698   -4.9162    2.2322 C   0  0  0  0  0  0  0  0  0  0  0  0
   -1.2132   -4.4054    1.3072 C   0  0  0  0  0  0  0  0  0  0  0  0
   -1.8144   -4.1614    0.0500 C   0  0  0  0  0  0  0  0  0  0  0  0
   -1.2406   -3.5272   -1.0569 C   0  0  0  0  0  0  0  0  0  0  0  0
    0.1202   -2.9710   -1.0501 C   0  0  0  0  0  0  0  0  0  0  0  0
    1.0072   -3.2054   -2.0974 C   0  0  0  0  0  0  0  0  0  0  0  0
    2.2092   -2.5270   -2.1640 C   0  0  0  0  0  0  0  0  0  0  0  0
    2.5501   -1.5948   -1.1944 C   0  0  0  0  0  0  0  0  0  0  0  0
    4.0132   -0.5948   -1.3654 S   0  0  0  0  0  0  0  0  0  0  0  0
    3.1743    1.0059   -1.6658 C   0  0  0  0  0  0  0  0  0  0  0  0
    2.4567    1.0188   -3.0008 C   0  0  0  0  0  0  0  0  0  0  0  0
    1.6857   -1.4143   -0.1213 C   0  0  0  0  0  0  0  0  0  0  0  0
    1.9974   -0.5373    0.8526 F   0  0  0  0  0  0  0  0  0  0  0  0
    0.4814   -2.0817   -0.0415 C   0  0  0  0  0  0  0  0  0  0  0  0
   -2.0905   -3.2352   -2.1093 C   0  0  0  0  0  0  0  0  0  0  0  0
   -3.4863   -3.4797   -2.0878 C   0  0  0  0  0  0  0  0  0  0  0  0
   -4.0431   -4.1830   -1.0051 C   0  0  0  0  0  0  0  0  0  0  0  0
   -5.4813   -4.4683   -0.9095 C   0  0  0  0  0  0  0  0  0  0  0  0
   -6.4339   -3.4570   -1.0212 C   0  0  0  0  0  0  0  0  0  0  0  0
   -7.7772   -3.7464   -0.9167 C   0  0  0  0  0  0  0  0  0  0  0  0
   -8.2272   -5.0464   -0.6890 C   0  0  0  0  0  0  0  0  0  0  0  0
   -9.9733   -5.2689   -0.5298 S   0  0  0  0  0  0  0  0  0  0  0  0
  -10.3082   -6.8965   -1.2983 C   0  0  0  0  0  0  0  0  0  0  0  0
   -9.8509   -6.9485   -2.7420 C   0  0  0  0  0  0  0  0  0  0  0  0
   -7.2623   -6.0385   -0.5427 C   0  0  0  0  0  0  0  0  0  0  0  0
   -5.9142   -5.7656   -0.6588 C   0  0  0  0  0  0  0  0  0  0  0  0
   -7.6126   -7.3161   -0.2791 F   0  0  0  0  0  0  0  0  0  0  0  0
   -3.1833   -4.5245    0.0322 C   0  0  0  0  0  0  0  0  0  0  0  0
   -3.6637   -5.2177    1.5661 S   0  0  0  0  0  0  0  0  0  0  0  0
   -4.1493   -2.8052   -3.1544 C   0  0  0  0  0  0  0  0  0  0  0  0
   -3.3136   -2.0730   -3.9402 C   0  0  0  0  0  0  0  0  0  0  0  0
   -1.6239   -2.2837   -3.4860 S   0  0  0  0  0  0  0  0  0  0  0  0
   -3.5520   -0.9549   -4.8028 C   0  0  0  0  0  0  0  0  0  0  0  0
   -2.5889   -0.3416   -5.5478 C   0  0  0  0  0  0  0  0  0  0  0  0
   -2.8484    1.0266   -5.8012 C   0  0  0  0  0  0  0  0  0  0  0  0
   -1.9379    1.9879   -6.2648 C   0  0  0  0  0  0  0  0  0  0  0  0
   -0.6281    1.6096   -6.8150 C   0  0  0  0  0  0  0  0  0  0  0  0
    0.2744    0.8321   -6.0968 C   0  0  0  0  0  0  0  0  0  0  0  0
    1.4691    0.4233   -6.6581 C   0  0  0  0  0  0  0  0  0  0  0  0
    1.7996    0.7715   -7.9631 C   0  0  0  0  0  0  0  0  0  0  0  0
    3.2506    0.2735   -8.8251 S   0  0  0  0  0  0  0  0  0  0  0  0
    3.9902   -1.0155   -7.7644 C   0  0  0  0  0  0  0  0  0  0  0  0
    3.1999   -2.3095   -7.7926 C   0  0  0  0  0  0  0  0  0  0  0  0
    0.9082    1.5992   -8.6504 C   0  0  0  0  0  0  0  0  0  0  0  0
    1.2150    1.9913   -9.9030 F   0  0  0  0  0  0  0  0  0  0  0  0
   -0.2809    2.0205   -8.1002 C   0  0  0  0  0  0  0  0  0  0  0  0
   -2.3079    3.3112   -6.1004 C   0  0  0  0  0  0  0  0  0  0  0  0
   -3.5634    3.7166   -5.5861 C   0  0  0  0  0  0  0  0  0  0  0  0
   -4.5153    2.7489   -5.2219 C   0  0  0  0  0  0  0  0  0  0  0  0
   -5.8281    3.0971   -4.6618 C   0  0  0  0  0  0  0  0  0  0  0  0
   -5.9533    3.9312   -3.5558 C   0  0  0  0  0  0  0  0  0  0  0  0
   -7.1928    4.2322   -3.0232 C   0  0  0  0  0  0  0  0  0  0  0  0
   -8.3542    3.7148   -3.5851 C   0  0  0  0  0  0  0  0  0  0  0  0
   -9.9938    4.0015   -3.0103 S   0  0  0  0  0  0  0  0  0  0  0  0
   -9.8224    5.3718   -1.8157 C   0  0  0  0  0  0  0  0  0  0  0  0
   -9.5345    6.6970   -2.4956 C   0  0  0  0  0  0  0  0  0  0  0  0
   -8.2110    2.8640   -4.6839 C   0  0  0  0  0  0  0  0  0  0  0  0
   -6.9824    2.5483   -5.2170 C   0  0  0  0  0  0  0  0  0  0  0  0
   -9.3147    2.3338   -5.2453 F   0  0  0  0  0  0  0  0  0  0  0  0
   -4.1127    1.4243   -5.3020 C   0  0  0  0  0  0  0  0  0  0  0  0
   -4.9577    0.0769   -4.5714 S   0  0  0  0  0  0  0  0  0  0  0  0
   -3.6067    5.1186   -5.3652 C   0  0  0  0  0  0  0  0  0  0  0  0
   -2.4147    5.7460   -5.5911 C   0  0  0  0  0  0  0  0  0  0  0  0
   -1.2176    4.6623   -6.2653 S   0  0  0  0  0  0  0  0  0  0  0  0
   -2.0715    7.0704   -5.1644 C   0  0  0  0  0  0  0  0  0  0  0  0
   -3.0137    8.0552   -4.9807 N   0  0  0  0  0  0  0  0  0  0  0  0
   -2.4158    9.0649   -4.3145 C   0  0  0  0  0  0  0  0  0  0  0  0
   -1.1723    8.7909   -4.0360 N   0  0  0  0  0  0  0  0  0  0  0  0
   -0.9091    7.5553   -4.5603 C   0  0  0  0  0  0  0  0  0  0  0  0
    0.3605    6.8752   -4.4922 C   0  0  0  0  0  0  0  0  0  0  0  0
    1.2616    6.8354   -3.4897 C   0  0  0  0  0  0  0  0  0  0  0  0
    1.2161    7.4526   -2.2056 C   0  0  0  0  0  0  0  0  0  0  0  0
    0.4210    8.5087   -1.8603 N   0  0  0  0  0  0  0  0  0  0  0  0
    0.6337    8.7525   -0.5492 C   0  0  0  0  0  0  0  0  0  0  0  0
    1.4931    7.9288   -0.0173 N   0  0  0  0  0  0  0  0  0  0  0  0
    1.8923    7.0994   -1.0243 C   0  0  0  0  0  0  0  0  0  0  0  0
    2.8181    6.0262   -0.8543 C   0  0  0  0  0  0  0  0  0  0  0  0
    3.2975    5.5873    0.3273 C   0  0  0  0  0  0  0  0  0  0  0  0
    4.2260    4.5019    0.4226 C   0  0  0  0  0  0  0  0  0  0  0  0
    4.9729    3.9571   -0.5809 C   0  0  0  0  0  0  0  0  0  0  0  0
    5.7590    2.8466   -0.1857 C   0  0  0  0  0  0  0  0  0  0  0  0
    6.5512    2.0345   -1.0122 C   0  0  0  0  0  0  0  0  0  0  0  0
    6.6702    2.3479   -2.4426 C   0  0  0  0  0  0  0  0  0  0  0  0
    7.1067    3.6031   -2.8625 C   0  0  0  0  0  0  0  0  0  0  0  0
    7.0966    3.9374   -4.1997 C   0  0  0  0  0  0  0  0  0  0  0  0
    6.6442    3.0404   -5.1644 C   0  0  0  0  0  0  0  0  0  0  0  0
    6.6132    3.5892   -6.8492 S   0  0  0  0  0  0  0  0  0  0  0  0
    4.9646    3.0351   -7.4197 C   0  0  0  0  0  0  0  0  0  0  0  0
    3.8449    3.5667   -6.5471 C   0  0  0  0  0  0  0  0  0  0  0  0
    6.2713    1.7715   -4.7344 C   0  0  0  0  0  0  0  0  0  0  0  0
    5.8515    0.8368   -5.6202 F   0  0  0  0  0  0  0  0  0  0  0  0
    6.2782    1.4195   -3.4001 C   0  0  0  0  0  0  0  0  0  0  0  0
    7.1388    0.9298   -0.4216 C   0  0  0  0  0  0  0  0  0  0  0  0
    6.9935    0.6266    0.9531 C   0  0  0  0  0  0  0  0  0  0  0  0
    6.1979    1.4373    1.7801 C   0  0  0  0  0  0  0  0  0  0  0  0
    6.0376    1.1107    3.2030 C   0  0  0  0  0  0  0  0  0  0  0  0
    6.2722    2.0616    4.1937 C   0  0  0  0  0  0  0  0  0  0  0  0
    6.2171    1.7134    5.5275 C   0  0  0  0  0  0  0  0  0  0  0  0
    5.9082    0.4156    5.9218 C   0  0  0  0  0  0  0  0  0  0  0  0
    5.8911    0.0459    7.6546 S   0  0  0  0  0  0  0  0  0  0  0  0
    6.8677   -1.5052    7.7293 C   0  0  0  0  0  0  0  0  0  0  0  0
    8.2728   -1.3124    7.1948 C   0  0  0  0  0  0  0  0  0  0  0  0
    5.5982   -0.5044    4.9259 C   0  0  0  0  0  0  0  0  0  0  0  0
    5.6760   -0.1784    3.5873 C   0  0  0  0  0  0  0  0  0  0  0  0
    5.2189   -1.7630    5.2437 F   0  0  0  0  0  0  0  0  0  0  0  0
    5.5959    2.5382    1.1869 C   0  0  0  0  0  0  0  0  0  0  0  0
    4.4971    3.6661    1.9452 S   0  0  0  0  0  0  0  0  0  0  0  0
    7.7618   -0.5223    1.3104 C   0  0  0  0  0  0  0  0  0  0  0  0
    8.4229   -1.0616    0.2668 C   0  0  0  0  0  0  0  0  0  0  0  0
    8.1732   -0.2203   -1.2241 S   0  0  0  0  0  0  0  0  0  0  0  0
   -0.2629   -4.9766   11.5168 H   0  0  0  0  0  0  0  0  0  0  0  0
    0.4648   -3.2296    9.7178 H   0  0  0  0  0  0  0  0  0  0  0  0
    2.2042   -3.2082    7.8093 H   0  0  0  0  0  0  0  0  0  0  0  0
    3.3833   -1.0746    7.4731 H   0  0  0  0  0  0  0  0  0  0  0  0
    1.1309    2.4993    4.8950 H   0  0  0  0  0  0  0  0  0  0  0  0
    2.8263    2.9581    4.6354 H   0  0  0  0  0  0  0  0  0  0  0  0
    1.5622    0.3212    3.7111 H   0  0  0  0  0  0  0  0  0  0  0  0
    3.2534    0.7785    3.4977 H   0  0  0  0  0  0  0  0  0  0  0  0
    1.9821    1.6842    2.6763 H   0  0  0  0  0  0  0  0  0  0  0  0
   -1.2788   -1.5107    5.9851 H   0  0  0  0  0  0  0  0  0  0  0  0
   -3.9414   -6.9162    8.7480 H   0  0  0  0  0  0  0  0  0  0  0  0
   -5.1080   -9.0767    8.8483 H   0  0  0  0  0  0  0  0  0  0  0  0
   -3.3781  -12.7607    6.1127 H   0  0  0  0  0  0  0  0  0  0  0  0
   -4.3084  -13.6984    7.2951 H   0  0  0  0  0  0  0  0  0  0  0  0
   -1.9790  -11.8208    7.9745 H   0  0  0  0  0  0  0  0  0  0  0  0
   -1.9142  -13.5845    7.9867 H   0  0  0  0  0  0  0  0  0  0  0  0
   -2.9351  -12.7277    9.1504 H   0  0  0  0  0  0  0  0  0  0  0  0
   -1.5152   -8.4234    5.5558 H   0  0  0  0  0  0  0  0  0  0  0  0
   -2.8791   -6.6826    4.4030 H   0  0  0  0  0  0  0  0  0  0  0  0
   -0.1834   -4.1882    1.5264 H   0  0  0  0  0  0  0  0  0  0  0  0
    0.7449   -3.9111   -2.8706 H   0  0  0  0  0  0  0  0  0  0  0  0
    2.8882   -2.6923   -2.9859 H   0  0  0  0  0  0  0  0  0  0  0  0
    3.9699    1.7463   -1.6423 H   0  0  0  0  0  0  0  0  0  0  0  0
    2.4950    1.1914   -0.8355 H   0  0  0  0  0  0  0  0  0  0  0  0
    1.6853    0.2503   -3.0331 H   0  0  0  0  0  0  0  0  0  0  0  0
    1.9876    1.9882   -3.1599 H   0  0  0  0  0  0  0  0  0  0  0  0
    3.1622    0.8380   -3.8088 H   0  0  0  0  0  0  0  0  0  0  0  0
   -0.1821   -1.8721    0.7831 H   0  0  0  0  0  0  0  0  0  0  0  0
   -6.1177   -2.4358   -1.1692 H   0  0  0  0  0  0  0  0  0  0  0  0
   -8.5125   -2.9619   -1.0065 H   0  0  0  0  0  0  0  0  0  0  0  0
  -11.3925   -6.9832   -1.2268 H   0  0  0  0  0  0  0  0  0  0  0  0
   -9.8499   -7.6768   -0.6950 H   0  0  0  0  0  0  0  0  0  0  0  0
  -10.1480   -7.8967   -3.1854 H   0  0  0  0  0  0  0  0  0  0  0  0
   -8.7681   -6.8629   -2.8103 H   0  0  0  0  0  0  0  0  0  0  0  0
  -10.2987   -6.1385   -3.3141 H   0  0  0  0  0  0  0  0  0  0  0  0
   -5.2106   -6.5767   -0.5512 H   0  0  0  0  0  0  0  0  0  0  0  0
   -5.2148   -2.8191   -3.2975 H   0  0  0  0  0  0  0  0  0  0  0  0
   -1.6722   -0.8319   -5.8213 H   0  0  0  0  0  0  0  0  0  0  0  0
    0.0477    0.5533   -5.0789 H   0  0  0  0  0  0  0  0  0  0  0  0
    2.1424   -0.1743   -6.0661 H   0  0  0  0  0  0  0  0  0  0  0  0
    4.9812   -1.1577   -8.1951 H   0  0  0  0  0  0  0  0  0  0  0  0
    4.1099   -0.6181   -6.7586 H   0  0  0  0  0  0  0  0  0  0  0  0
    3.7008   -3.0593   -7.1833 H   0  0  0  0  0  0  0  0  0  0  0  0
    2.1924   -2.1646   -7.4078 H   0  0  0  0  0  0  0  0  0  0  0  0
    3.1262   -2.6828   -8.8114 H   0  0  0  0  0  0  0  0  0  0  0  0
   -0.9426    2.6405   -8.6845 H   0  0  0  0  0  0  0  0  0  0  0  0
   -5.0666    4.3237   -3.0804 H   0  0  0  0  0  0  0  0  0  0  0  0
   -7.2421    4.8661   -2.1527 H   0  0  0  0  0  0  0  0  0  0  0  0
  -10.7914    5.3965   -1.3175 H   0  0  0  0  0  0  0  0  0  0  0  0
   -9.0637    5.1037   -1.0817 H   0  0  0  0  0  0  0  0  0  0  0  0
   -8.5950    6.6599   -3.0432 H   0  0  0  0  0  0  0  0  0  0  0  0
   -9.4738    7.4897   -1.7523 H   0  0  0  0  0  0  0  0  0  0  0  0
  -10.3297    6.9380   -3.1971 H   0  0  0  0  0  0  0  0  0  0  0  0
   -6.9304    1.8893   -6.0694 H   0  0  0  0  0  0  0  0  0  0  0  0
   -4.4728    5.6186   -4.9696 H   0  0  0  0  0  0  0  0  0  0  0  0
   -3.9619    8.0240   -5.3169 H   0  0  0  0  0  0  0  0  0  0  0  0
   -2.9107    9.9784   -4.0515 H   0  0  0  0  0  0  0  0  0  0  0  0
    0.5676    6.2626   -5.3592 H   0  0  0  0  0  0  0  0  0  0  0  0
    2.1215    6.1954   -3.6392 H   0  0  0  0  0  0  0  0  0  0  0  0
   -0.1997    8.9654   -2.5324 H   0  0  0  0  0  0  0  0  0  0  0  0
    0.1459    9.5435   -0.0142 H   0  0  0  0  0  0  0  0  0  0  0  0
    3.1203    5.5317   -1.7676 H   0  0  0  0  0  0  0  0  0  0  0  0
    2.9533    6.0460    1.2420 H   0  0  0  0  0  0  0  0  0  0  0  0
    4.9662    4.3314   -1.5884 H   0  0  0  0  0  0  0  0  0  0  0  0
    7.4485    4.3194   -2.1308 H   0  0  0  0  0  0  0  0  0  0  0  0
    7.4217    4.9140   -4.5232 H   0  0  0  0  0  0  0  0  0  0  0  0
    4.8957    3.4339   -8.4311 H   0  0  0  0  0  0  0  0  0  0  0  0
    4.9613    1.9495   -7.4725 H   0  0  0  0  0  0  0  0  0  0  0  0
    3.8931    4.6519   -6.4835 H   0  0  0  0  0  0  0  0  0  0  0  0
    3.9070    3.1582   -5.5393 H   0  0  0  0  0  0  0  0  0  0  0  0
    2.8828    3.2848   -6.9715 H   0  0  0  0  0  0  0  0  0  0  0  0
    5.9579    0.4298   -3.1119 H   0  0  0  0  0  0  0  0  0  0  0  0
    6.5362    3.0698    3.9141 H   0  0  0  0  0  0  0  0  0  0  0  0
    6.4243    2.4444    6.2929 H   0  0  0  0  0  0  0  0  0  0  0  0
    6.3333   -2.2875    7.1945 H   0  0  0  0  0  0  0  0  0  0  0  0
    6.8809   -1.7469    8.7918 H   0  0  0  0  0  0  0  0  0  0  0  0
    8.7792   -0.5147    7.7340 H   0  0  0  0  0  0  0  0  0  0  0  0
    8.2523   -1.0542    6.1373 H   0  0  0  0  0  0  0  0  0  0  0  0
    8.8424   -2.2320    7.3145 H   0  0  0  0  0  0  0  0  0  0  0  0
    5.4254   -0.9262    2.8501 H   0  0  0  0  0  0  0  0  0  0  0  0
    7.8233   -0.9075    2.3119 H   0  0  0  0  0  0  0  0  0  0  0  0
    9.0629   -1.9224    0.2671 H   0  0  0  0  0  0  0  0  0  0  0  0
  1  2  2  0  0  0  0
  2  3  1  0  0  0  0
  3  4  2  0  0  0  0
  4  5  1  0  0  0  0
  5  6  2  0  0  0  0
  6  7  1  0  0  0  0
  7  8  2  0  0  0  0
  8  9  1  0  0  0  0
  9 10  1  0  0  0  0
 10 11  1  0  0  0  0
  8 12  1  0  0  0  0
 12 13  1  0  0  0  0
 12 14  2  0  0  0  0
  4 15  1  0  0  0  0
 15 16  2  0  0  0  0
 16 17  1  0  0  0  0
 17 18  1  0  0  0  0
 18 19  2  0  0  0  0
 19 20  1  0  0  0  0
 20 21  2  0  0  0  0
 21 22  1  0  0  0  0
 22 23  1  0  0  0  0
 23 24  1  0  0  0  0
 21 25  1  0  0  0  0
 25 26  2  0  0  0  0
 25 27  1  0  0  0  0
 17 28  2  0  0  0  0
 28 29  1  0  0  0  0
 16 30  1  0  0  0  0
 30 31  2  0  0  0  0
 31 32  1  0  0  0  0
 31 33  1  0  0  0  0
 33 34  2  0  0  0  0
 34 35  1  0  0  0  0
 35 36  2  0  0  0  0
 36 37  1  0  0  0  0
 37 38  2  0  0  0  0
 38 39  1  0  0  0  0
 39 40  2  0  0  0  0
 40 41  1  0  0  0  0
 41 42  1  0  0  0  0
 42 43  1  0  0  0  0
 40 44  1  0  0  0  0
 44 45  1  0  0  0  0
 44 46  2  0  0  0  0
 36 47  1  0  0  0  0
 47 48  2  0  0  0  0
 48 49  1  0  0  0  0
 49 50  1  0  0  0  0
 50 51  2  0  0  0  0
 51 52  1  0  0  0  0
 52 53  2  0  0  0  0
 53 54  1  0  0  0  0
 54 55  1  0  0  0  0
 55 56  1  0  0  0  0
 53 57  1  0  0  0  0
 57 58  2  0  0  0  0
 57 59  1  0  0  0  0
 49 60  2  0  0  0  0
 60 61  1  0  0  0  0
 48 62  1  0  0  0  0
 62 63  2  0  0  0  0
 63 64  1  0  0  0  0
 63 65  1  0  0  0  0
 65 66  2  0  0  0  0
 66 67  1  0  0  0  0
 67 68  2  0  0  0  0
 68 69  1  0  0  0  0
 69 70  2  0  0  0  0
 70 71  1  0  0  0  0
 71 72  2  0  0  0  0
 72 73  1  0  0  0  0
 73 74  1  0  0  0  0
 74 75  1  0  0  0  0
 72 76  1  0  0  0  0
 76 77  1  0  0  0  0
 76 78  2  0  0  0  0
 68 79  1  0  0  0  0
 79 80  2  0  0  0  0
 80 81  1  0  0  0  0
 81 82  1  0  0  0  0
 82 83  2  0  0  0  0
 83 84  1  0  0  0  0
 84 85  2  0  0  0  0
 85 86  1  0  0  0  0
 86 87  1  0  0  0  0
 87 88  1  0  0  0  0
 85 89  1  0  0  0  0
 89 90  2  0  0  0  0
 89 91  1  0  0  0  0
 81 92  2  0  0  0  0
 92 93  1  0  0  0  0
 80 94  1  0  0  0  0
 94 95  2  0  0  0  0
 95 96  1  0  0  0  0
 95 97  1  0  0  0  0
 97 98  1  0  0  0  0
 98 99  1  0  0  0  0
 99100  2  0  0  0  0
100101  1  0  0  0  0
101102  1  0  0  0  0
102103  2  0  0  0  0
103104  1  0  0  0  0
104105  1  0  0  0  0
105106  1  0  0  0  0
106107  2  0  0  0  0
107108  1  0  0  0  0
108109  1  0  0  0  0
109110  2  0  0  0  0
110111  1  0  0  0  0
111112  2  0  0  0  0
112113  1  0  0  0  0
113114  2  0  0  0  0
114115  1  0  0  0  0
115116  2  0  0  0  0
116117  1  0  0  0  0
117118  2  0  0  0  0
118119  1  0  0  0  0
119120  1  0  0  0  0
120121  1  0  0  0  0
118122  1  0  0  0  0
122123  1  0  0  0  0
122124  2  0  0  0  0
114125  1  0  0  0  0
125126  2  0  0  0  0
126127  1  0  0  0  0
127128  1  0  0  0  0
128129  2  0  0  0  0
129130  1  0  0  0  0
130131  2  0  0  0  0
131132  1  0  0  0  0
132133  1  0  0  0  0
133134  1  0  0  0  0
131135  1  0  0  0  0
135136  2  0  0  0  0
135137  1  0  0  0  0
127138  2  0  0  0  0
138139  1  0  0  0  0
126140  1  0  0  0  0
140141  2  0  0  0  0
141142  1  0  0  0  0
 29  1  1  0  0  0  0
 61 33  1  0  0  0  0
 93 65  1  0  0  0  0
101 97  2  0  0  0  0
108104  2  0  0  0  0
139111  1  0  0  0  0
 28  3  1  0  0  0  0
 60 35  1  0  0  0  0
 92 67  1  0  0  0  0
138113  1  0  0  0  0
 14  5  1  0  0  0  0
 32 15  1  0  0  0  0
 46 37  1  0  0  0  0
 64 47  1  0  0  0  0
 78 69  1  0  0  0  0
 96 79  1  0  0  0  0
124115  1  0  0  0  0
142125  1  0  0  0  0
 26 18  1  0  0  0  0
 58 50  1  0  0  0  0
 90 82  1  0  0  0  0
136128  1  0  0  0  0
  1143  1  0  0  0  0
  2144  1  0  0  0  0
  6145  1  0  0  0  0
  7146  1  0  0  0  0
 10147  1  0  0  0  0
 10148  1  0  0  0  0
 11149  1  0  0  0  0
 11150  1  0  0  0  0
 11151  1  0  0  0  0
 14152  1  0  0  0  0
 19153  1  0  0  0  0
 20154  1  0  0  0  0
 23155  1  0  0  0  0
 23156  1  0  0  0  0
 24157  1  0  0  0  0
 24158  1  0  0  0  0
 24159  1  0  0  0  0
 26160  1  0  0  0  0
 30161  1  0  0  0  0
 34162  1  0  0  0  0
 38163  1  0  0  0  0
 39164  1  0  0  0  0
 42165  1  0  0  0  0
 42166  1  0  0  0  0
 43167  1  0  0  0  0
 43168  1  0  0  0  0
 43169  1  0  0  0  0
 46170  1  0  0  0  0
 51171  1  0  0  0  0
 52172  1  0  0  0  0
 55173  1  0  0  0  0
 55174  1  0  0  0  0
 56175  1  0  0  0  0
 56176  1  0  0  0  0
 56177  1  0  0  0  0
 58178  1  0  0  0  0
 62179  1  0  0  0  0
 66180  1  0  0  0  0
 70181  1  0  0  0  0
 71182  1  0  0  0  0
 74183  1  0  0  0  0
 74184  1  0  0  0  0
 75185  1  0  0  0  0
 75186  1  0  0  0  0
 75187  1  0  0  0  0
 78188  1  0  0  0  0
 83189  1  0  0  0  0
 84190  1  0  0  0  0
 87191  1  0  0  0  0
 87192  1  0  0  0  0
 88193  1  0  0  0  0
 88194  1  0  0  0  0
 88195  1  0  0  0  0
 90196  1  0  0  0  0
 94197  1  0  0  0  0
 98198  1  0  0  0  0
 99199  1  0  0  0  0
102200  1  0  0  0  0
103201  1  0  0  0  0
105202  1  0  0  0  0
106203  1  0  0  0  0
109204  1  0  0  0  0
110205  1  0  0  0  0
112206  1  0  0  0  0
116207  1  0  0  0  0
117208  1  0  0  0  0
120209  1  0  0  0  0
120210  1  0  0  0  0
121211  1  0  0  0  0
121212  1  0  0  0  0
121213  1  0  0  0  0
124214  1  0  0  0  0
129215  1  0  0  0  0
130216  1  0  0  0  0
133217  1  0  0  0  0
133218  1  0  0  0  0
134219  1  0  0  0  0
134220  1  0  0  0  0
134221  1  0  0  0  0
136222  1  0  0  0  0
140223  1  0  0  0  0
141224  1  0  0  0  0
M  END
