254

C          0.96690       -5.78410       11.13840
C          1.34890       -4.49890       10.99110
C          0.72860       -3.86260        9.87670
C          0.92910       -2.56010        9.39480
C          1.82770       -1.62680       10.05310
S          3.09240       -0.84550        9.15270
C          3.65980        0.01600       10.54020
C          4.84680        0.90910       10.44960
C          6.12350        0.10840       10.18780
C          2.90160       -0.29390       11.62950
Cl         3.15250        0.36490       13.19510
C          1.85990       -1.22260       11.35750
Cl         0.72220       -1.71110       12.54710
C          0.25290       -2.20630        8.23460
C         -0.59320       -3.09550        7.53150
C         -0.77960       -4.40450        8.00220
C         -1.56070       -5.37570        7.25630
S         -1.17170       -5.73440        5.59760
C         -2.37540       -6.97160        5.50350
C         -2.52520       -7.81940        4.28970
C         -1.77540       -9.14140        4.47090
C         -3.04090       -7.07850        6.68840
C         -2.58280       -6.17590        7.68460
Cl        -3.30580       -6.06810        9.23370
Cl        -4.31450       -8.19220        6.96810
C         -0.13130       -4.74850        9.18300
S         -0.16190       -6.31560        9.94030
C         -1.21800       -2.46710        6.42580
C         -0.88250       -1.15390        6.28740
S          0.27590       -0.63070        7.49520
C         -1.39700       -0.21420        5.34780
C         -1.06420        1.10260        5.22840
C         -1.78120        1.78020        4.21210
C         -1.61340        3.10600        3.76740
C         -0.69400        4.00350        4.44560
S          0.53480        4.88380        3.58570
C          1.13050        5.62140        5.03280
C          2.30090        6.54270        5.01930
C          3.57150        5.83910        5.50280
C          0.40560        5.20480        6.10990
Cl         0.69350        5.73460        7.71650
C         -0.62960        4.29000        5.78220
Cl        -1.72850        3.68430        6.95460
C         -2.34400        3.49320        2.65140
C         -3.29360        2.64310        2.03430
C         -3.49010        1.32940        2.49720
C         -4.44750        0.45090        1.84510
S         -4.42400        0.22210        0.11910
C         -5.81110       -0.81030        0.15570
C         -6.36570       -1.37260       -1.10560
C         -5.51990       -2.53610       -1.62430
C         -6.23700       -0.98490        1.43790
C         -5.46690       -0.27270        2.39850
Cl        -5.86070       -0.26380        4.06590
Cl        -7.59100       -1.94360        1.87580
C         -2.70210        0.91930        3.56260
S         -2.63750       -0.69290        4.21170
C         -3.91420        3.26160        0.92810
C         -3.42870        4.50630        0.64480
S         -2.23380        5.02150        1.81570
C         -3.68760        5.18360       -0.58700
C         -4.63440        4.80670       -1.49730
C         -4.40710        5.30990       -2.79760
C         -5.02200        4.87820       -3.98830
C         -6.13110        3.94520       -4.05070
C         -7.15410        3.99950       -4.95240
C         -8.04030        2.89960       -4.94690
C         -7.74770        1.91220       -4.06150
C         -8.45000        0.60430       -3.90650
C         -7.73040       -0.49000       -4.69770
Se        -6.21710        2.33890       -3.06040
C         -4.38000        5.24910       -5.16310
C         -3.22870        6.07480       -5.21490
C         -2.71100        6.63600       -4.02660
C         -1.58180        7.54130       -3.96030
C         -1.46300        8.55890       -3.05550
C         -0.24720        9.27560       -3.08400
C          0.66390        8.85350       -3.99820
C          2.03690        9.39220       -4.22410
C          3.10320        8.35520       -3.87360
Se        -0.00840        7.41110       -4.99400
C         -3.29090        6.17940       -2.84320
S         -2.57970        6.36200       -1.25570
C         -2.59660        6.00040       -6.47980
C         -3.17050        5.09390       -7.33030
S         -4.69090        4.48910       -6.70200
C         -2.48210        4.32940       -8.32280
C         -1.13930        4.38320       -8.57850
C         -0.59610        3.14160       -8.98500
C          0.76390        2.77780       -9.00860
C          1.84630        3.73930       -8.90270
S          1.88880        4.98430       -7.68800
C          3.43260        5.56320       -8.21700
C          4.07180        6.73800       -7.56310
C          3.16180        7.96460       -7.60740
C          3.87860        4.82230       -9.26960
Cl         5.36780        5.09570      -10.07690
C          2.99000        3.78130       -9.65240
Cl         3.30640        2.74230      -10.97730
C          1.03480        1.41470       -8.96960
C          0.03340        0.42030       -9.05960
C         -1.31170        0.79290       -9.26840
C         -2.33140       -0.21840       -9.44790
S         -3.85870       -0.16370       -8.61610
C         -4.39000       -1.65000       -9.32800
C         -5.71750       -2.22770       -8.98080
C         -5.77620       -2.64280       -7.51020
C         -3.43330       -2.14520      -10.16320
C         -2.26610       -1.33930      -10.23420
Cl        -0.95330       -1.71680      -11.27230
Cl        -3.59820       -3.59810      -11.06250
C         -1.59610        2.14630       -9.13350
S         -3.18320        2.81120       -8.86050
C          0.49880       -0.84030       -8.60830
C          1.78040       -0.80790       -8.13940
S          2.55270        0.73880       -8.44260
C          2.35830       -1.69800       -7.18460
C          3.31740       -1.35250       -6.27710
C          3.37760       -2.21770       -5.15940
C          4.05450       -1.98200       -3.94850
C          5.04510       -0.92900       -3.84700
S          5.04730        0.21800       -2.53990
C          6.43850        1.03950       -3.15990
C          7.04140        2.18670       -2.42760
C          7.91260        1.69530       -1.26910
C          6.87330        0.44080       -4.30490
Cl         8.23900        0.96520       -5.20180
C          6.08290       -0.66990       -4.70270
Cl         6.46410       -1.62520       -6.07610
C          3.67010       -2.75890       -2.86300
C          2.77150       -3.84900       -2.97280
C          2.18710       -4.15890       -4.21670
C          1.28010       -5.28040       -4.38150
S         -0.04700       -5.56480       -3.29240
C         -0.56090       -6.97640       -4.15280
C         -1.70500       -7.79260       -3.66180
C         -1.36130       -8.47830       -2.33830
C          0.25520       -7.19930       -5.22080
C          1.29220       -6.23690       -5.35990
Cl         2.48150       -6.34320       -6.58860
Cl         0.07350       -8.51100       -6.31240
C          2.46000       -3.29020       -5.26780
S          1.58440       -3.21680       -6.77490
C          2.52790       -4.45480       -1.71420
C          3.14870       -3.82250       -0.67900
S          4.15940       -2.50000       -1.21450
C          2.97370       -4.07560        0.71900
C          2.61770       -5.24240        1.32400
C          2.46420       -5.12340        2.72960
C          2.16550       -6.13310        3.66140
C          1.77310       -7.45460        3.20880
S          2.49690       -8.90420        3.83570
C          1.54150       -9.92040        2.80840
C          1.66110      -11.40260        2.87300
C          1.05150      -11.95050        4.16480
C          0.70440       -9.16520        2.04210
Cl        -0.40990       -9.81280        0.90750
C          0.83410       -7.76880        2.26290
Cl        -0.16460       -6.61790        1.46880
C          2.26330       -5.79330        5.00570
C          2.51380       -4.47250        5.45360
C          2.70390       -3.44250        4.52080
C          2.87980       -2.04650        4.89040
S          1.88660       -0.83670        4.12710
C          2.69820        0.45590        4.93610
C          2.39440        1.87460        4.60340
C          3.31780        2.36250        3.48370
C          3.66920       -0.03610        5.75530
C          3.77580       -1.45310        5.73440
Cl         4.99730       -2.29190        6.59690
Cl         4.68590        0.95110        6.71290
C          2.71560       -3.80690        3.17860
S          3.12490       -2.75400        1.85600
C          2.54300       -4.39880        6.87650
C          2.35990       -5.59720        7.46530
S          2.07910       -6.88550        6.34850
H          1.27840       -6.48000       11.89280
H          2.05380       -4.00950       11.63680
H          4.70030        1.62330        9.63580
H          4.93770        1.46240       11.38560
H          6.29620       -0.60430       10.99060
H          6.97730        0.77780       10.12600
H          6.03950       -0.43650        9.25060
H         -2.12980       -7.28740        3.42420
H         -3.58500       -8.02320        4.12290
H         -0.72490       -8.95230        4.68110
H         -2.19870       -9.70330        5.29940
H         -1.85200       -9.73830        3.56630
H         -1.91890       -2.95880        5.77540
H         -0.32150        1.56080        5.85500
H          2.44970        6.91830        4.00610
H          2.08880        7.38860        5.67740
H          3.81930        5.00640        4.85030
H          4.40320        6.53830        5.50650
H          3.43180        5.46110        6.51190
H         -6.38850       -0.57960       -1.85960
H         -7.38590       -1.71180       -0.91790
H         -5.94340       -2.92280       -2.54740
H         -5.49140       -3.33750       -0.89050
H         -4.50220       -2.20520       -1.81750
H         -4.65420        2.77830        0.32000
H         -5.44250        4.13920       -1.25550
H         -7.29360        4.84360       -5.60710
H         -8.88960        2.84800       -5.60760
H         -9.47420        0.70530       -4.27190
H         -8.49090        0.32300       -2.85060
H         -6.69690       -0.57620       -4.36520
H         -7.72860       -0.24690       -5.75760
H         -8.22420       -1.44840       -4.55780
H         -2.26190        8.82480       -2.38370
H         -0.05810       10.10200       -2.41900
H          2.16880       10.28370       -3.60710
H          2.14990        9.68590       -5.27160
H          4.09740        8.74400       -4.07990
H          3.04200        8.09180       -2.82020
H          2.94880        7.45130       -4.46250
H         -1.67360        6.50150       -6.71580
H         -0.53900        5.24260       -8.34830
H          4.30060        6.49580       -6.52180
H          5.01010        6.94840       -8.07880
H          2.91590        8.21700       -8.63590
H          3.66140        8.81470       -7.15090
H          2.23450        7.76610       -7.06810
H         -6.49530       -1.48540       -9.17510
H         -5.89740       -3.09250       -9.62080
H         -6.75560       -3.05120       -7.27590
H         -5.59250       -1.78340       -6.87000
H         -5.02400       -3.39910       -7.30070
H         -0.13310       -1.70330       -8.49840
H          3.87860       -0.43870       -6.35180
H          7.64870        2.76630       -3.12480
H          6.24730        2.82580       -2.03730
H          8.34440        2.54140       -0.74140
H          7.31610        1.11350       -0.57060
H          8.71890        1.06970       -1.64330
H         -1.94570       -8.54140       -4.41790
H         -2.57690       -7.15030       -3.51770
H         -1.13380       -7.73630       -1.57640
H         -2.20050       -9.07940       -1.99870
H         -0.49730       -9.12700       -2.46100
H          1.86980       -5.29040       -1.56880
H          2.52000       -6.16890        0.78930
H          1.14860      -11.83120        2.01030
H          2.71530      -11.68360        2.82600
H         -0.00610      -11.70560        4.21910
H          1.16210      -13.03080        4.19910
H          1.55210      -11.51990        5.02870
H          1.36010        1.95190        4.26810
H          2.52800        2.49480        5.49210
H          3.22380        1.71580        2.61460
H          3.04610        3.37320        3.19130
H          4.35330        2.35180        3.81420
H          2.71290       -3.48880        7.42040
H          2.38490       -5.82790        8.51150
