220

C         -0.76540       -3.74640       15.81350
C         -1.19720       -3.05300       14.74010
C         -1.79770       -3.88420       13.74970
C         -2.33470       -3.50850       12.51060
C         -2.28610       -2.13060       12.00290
C         -3.43420       -1.50820       11.52250
C         -3.38900       -0.23880       10.97860
C         -2.18540        0.45110       10.88620
S         -1.98170        2.05730       10.19800
C         -3.64170        2.45840        9.53460
C         -3.57350        3.79730        8.82530
C         -1.04300       -0.18150       11.38330
F          0.14210        0.45830       11.30480
C         -1.07650       -1.44120       11.93640
C         -2.89220       -4.52090       11.74520
C         -2.90230       -5.88390       12.13430
C         -2.32940       -6.26420       13.35940
C         -2.22850       -7.67560       13.74840
C         -1.66380       -8.60610       12.87600
C         -1.54370       -9.92850       13.24240
C         -1.98000      -10.37980       14.48740
S         -1.72130      -12.08790       14.85900
C         -3.23930      -12.58850       15.75180
C         -4.48440      -12.35990       14.91900
C         -2.52190       -9.43550       15.35490
C         -2.65480       -8.10830       14.99890
F         -2.93850       -9.78820       16.58970
C         -1.81490       -5.24420       14.14870
S         -1.05710       -5.44740       15.70690
C         -3.52610       -6.70970       11.16340
C         -3.93620       -6.01910       10.05940
S         -3.59900       -4.30440       10.16670
C         -4.54180       -6.51520        8.87330
S         -4.77410       -5.46420        7.49230
C         -5.42430       -6.72950        6.46680
C         -5.47330       -7.88560        7.20400
C         -4.98400       -7.76510        8.52370
O         -5.06850       -8.99050        9.11000
C         -5.59120       -9.82530        8.17790
S         -5.87010      -11.39020        8.43170
O         -5.84310       -9.17950        7.01530
C         -5.68920       -6.43460        5.10630
S         -5.22520       -4.86060        4.48660
C         -5.65440       -5.23670        2.82460
C         -6.16130       -6.50940        2.80790
C         -6.18340       -7.16880        4.05950
O         -6.69010       -8.41250        3.86390
C         -6.96990       -8.51080        2.54050
S         -7.60240       -9.81560        1.84330
O         -6.65400       -7.37130        1.87940
C         -5.31840       -4.30290        1.80890
C         -4.75620       -3.08060        2.04890
C         -4.32680       -2.41760        0.87990
C         -3.66130       -1.18250        0.79840
C         -3.29510       -0.44290        2.01210
C         -2.62460       -1.08320        3.05160
C         -2.29550       -0.41380        4.21350
C         -2.62210        0.92760        4.37780
S         -2.31480        1.87900        5.82610
C         -1.13700        0.87710        6.79760
C          0.24210        0.83730        6.16930
C         -3.27760        1.56220        3.32000
F         -3.61070        2.86170        3.44570
C         -3.60860        0.90690        2.15490
C         -3.32190       -0.75020       -0.47170
C         -3.60190       -1.49370       -1.64800
C         -4.28590       -2.72190       -1.56370
C         -4.60580       -3.50190       -2.76520
C         -5.19980       -2.89360       -3.87090
C         -5.49960       -3.62570       -5.00140
C         -5.20970       -4.98270       -5.06940
S         -5.56420       -5.93640       -6.52490
C         -4.52060       -5.02610       -7.72460
C         -3.05440       -5.10900       -7.35090
C         -4.63780       -5.58560       -3.95420
C         -4.33250       -4.86560       -2.81660
F         -4.34150       -6.89440       -3.97930
C         -4.61800       -3.16370       -0.29070
S         -5.41590       -4.67230        0.10250
C         -3.01420       -0.89730       -2.79290
C         -2.32120        0.24770       -2.52010
S         -2.39310        0.67840       -0.82480
C         -1.51000        1.02840       -3.39990
C         -1.31200        0.87570       -4.74240
C         -0.31450        1.73530       -5.27030
C          0.18590        1.80000       -6.58260
C         -0.36880        0.99530       -7.67840
C         -0.75750        1.61630       -8.86600
C         -1.29890        0.88510       -9.89850
C         -1.46490       -0.49760       -9.80320
S         -2.14040       -1.30690      -11.21640
C         -2.97260       -2.80040      -10.54250
C         -4.04300       -3.24570      -11.51910
C         -1.03960       -1.10710       -8.62670
F         -1.11870       -2.45050       -8.46950
C         -0.51500       -0.38300       -7.57410
C          1.23440        2.68050       -6.80710
C          1.77710        3.52140       -5.80310
C          1.23940        3.50000       -4.50720
C          1.74000        4.37270       -3.43720
C          3.09250        4.42360       -3.10530
C          3.53170        5.23000       -2.07680
C          2.64830        6.02780       -1.35170
S          3.32870        7.04890       -0.07710
C          2.09340        6.97420        1.27090
C          1.81800        5.55200        1.71390
C          1.30570        5.99050       -1.71560
C          0.84840        5.16620       -2.72330
F          0.39760        6.77210       -1.09440
C          0.21610        2.59540       -4.27520
S         -0.51720        2.30340       -2.72380
C          2.85900        4.29570       -6.28760
C          3.17940        4.03200       -7.58810
S          2.11020        2.84620       -8.30640
C          4.27010        4.57880       -8.33190
C          5.17260        5.50700       -7.90150
C          6.17800        5.80810       -8.85440
C          7.24980        6.70600       -8.72260
C          7.41130        7.51530       -7.50880
C          8.61970        7.54280       -6.81520
C          8.74060        8.26120       -5.64490
C          7.67300        8.99200       -5.12740
S          7.94070        9.88240       -3.62320
C          6.39390        9.61100       -2.67900
C          6.09800        8.13850       -2.48210
C          6.48880        8.99810       -5.85890
F          5.42680        9.72850       -5.45300
C          6.34540        8.26390       -7.01830
C          8.13750        6.77350       -9.78630
C          7.98650        6.01070      -10.97000
C          6.90820        5.12450      -11.10690
C          6.72450        4.32160      -12.32330
C          6.70600        4.91670      -13.58350
C          6.55590        4.14970      -14.71860
C          6.41250        2.76450      -14.64730
S          6.19930        1.90190      -16.17570
C          7.10250        0.32570      -15.94580
C          8.56090        0.54900      -15.60000
C          6.39530        2.18970      -13.38020
C          6.55970        2.94380      -12.23590
F          6.22250        0.85910      -13.22250
C          6.03200        5.03850      -10.03490
S          4.62000        4.01770       -9.95340
C          9.04490        6.26260      -11.89360
C          9.92360        7.18230      -11.44680
S          9.54400        7.80240       -9.87660
H         -0.28440       -3.36510       16.69300
H         -1.11210       -1.98610       14.64180
H         -4.38420       -2.01560       11.58950
H         -4.30240        0.20890       10.62390
H         -4.33610        2.49710       10.37400
H         -3.92570        1.66690        8.84130
H         -3.23660        4.57500        9.50670
H         -4.55950        4.06250        8.45090
H         -2.88840        3.74960        7.98250
H         -0.15870       -1.89020       12.28260
H         -1.29990       -8.28160       11.91310
H         -1.10410      -10.64540       12.56660
H         -3.28090      -12.06580       16.70480
H         -3.07870      -13.65080       15.93590
H         -5.35320      -12.74890       15.44590
H         -4.40170      -12.86640       13.95970
H         -4.64080      -11.29820       14.73660
H         -3.09730       -7.42450       15.70640
H         -3.66710       -7.76930       11.27670
H         -4.64940       -2.68100        3.04130
H         -2.33790       -2.11830        2.94320
H         -1.78870       -0.95330        4.99680
H         -1.56120       -0.11550        6.94660
H         -1.10120        1.38700        7.76090
H          0.21700        0.37700        5.18340
H          0.63490        1.84610        6.06680
H          0.91630        0.26640        6.80460
H         -4.12760        1.44620        1.37840
H         -5.45450       -1.84530       -3.82930
H         -5.97350       -3.14560       -5.84420
H         -4.71630       -5.51950       -8.67560
H         -4.87110       -3.99570       -7.77680
H         -2.87340       -4.61520       -6.39750
H         -2.44250       -4.62510       -8.10750
H         -2.74690       -6.14840       -7.26400
H         -3.85500       -5.37330       -1.99380
H         -3.06230       -1.33320       -3.77370
H         -1.85390        0.16440       -5.33780
H         -0.65860        2.68590       -8.96630
H         -1.61000        1.37320      -10.80870
H         -3.40710       -2.52380       -9.58340
H         -2.22190       -3.57690      -10.40230
H         -4.77990       -2.45900      -11.66390
H         -3.60240       -3.48630      -12.48370
H         -4.54560       -4.13090      -11.13520
H         -0.18480       -0.91470       -6.69480
H          3.79630        3.79830       -3.63330
H          4.57690        5.25360       -1.81000
H          1.18840        7.48540        0.95030
H          2.56420        7.55110        2.06710
H          1.14380        5.56140        2.56790
H          1.35000        4.97780        0.91620
H          2.74220        5.05490        2.00200
H         -0.20350        5.17750       -2.96290
H          3.38210        5.01350       -5.68390
H          5.13730        5.95240       -6.92480
H          9.45810        6.96890       -7.17790
H          9.67110        8.26280       -5.09920
H          5.57730       10.12890       -3.17690
H          6.59600       10.09990       -1.72640
H          6.94840        7.63660       -2.02530
H          5.23400        8.02420       -1.83050
H          5.87930        7.65440       -3.43260
H          5.40750        8.31030       -7.55030
H          6.79910        5.98870      -13.66860
H          6.54710        4.61230      -15.69330
H          6.59090       -0.27140      -15.19440
H          6.99940       -0.16030      -16.91610
H          9.04010        1.17530      -16.34970
H          9.07770       -0.40770      -15.56060
H          8.66110        1.03220      -14.62990
H          6.56320        2.43970      -11.28200
H          9.13480        5.76050      -12.83960
H         10.80160        7.54920      -11.94160
