
  xtb     03012201073D
 energy: -326.374887391068 gnorm: 0.000284272616 xtb: 6.4.1 (unknown)
161178  0     0  0            999 V2000
    4.7478   -7.9190    8.8195 C   0  0  0  0  0  0  0  0  0  0  0  0
    3.4833   -7.4832    8.9905 C   0  0  0  0  0  0  0  0  0  0  0  0
    2.8593   -7.0998    7.7671 C   0  0  0  0  0  0  0  0  0  0  0  0
    1.5451   -6.6483    7.5644 C   0  0  0  0  0  0  0  0  0  0  0  0
    0.6232   -6.4515    8.6719 C   0  0  0  0  0  0  0  0  0  0  0  0
    1.0442   -5.4331   10.0182 S   0  0  0  0  0  0  0  0  0  0  0  0
   -0.4944   -5.6633   10.7769 C   0  0  0  0  0  0  0  0  0  0  0  0
   -0.8396   -4.9667   12.0465 C   0  0  0  0  0  0  0  0  0  0  0  0
   -1.3170   -3.5383   11.7735 C   0  0  0  0  0  0  0  0  0  0  0  0
   -1.2772   -6.4798   10.0175 C   0  0  0  0  0  0  0  0  0  0  0  0
   -2.8734   -6.9423   10.4441 Cl  0  0  0  0  0  0  0  0  0  0  0  0
   -0.6479   -6.9304    8.8250 C   0  0  0  0  0  0  0  0  0  0  0  0
   -1.4021   -8.0282    7.7464 Cl  0  0  0  0  0  0  0  0  0  0  0  0
    1.1707   -6.3615    6.2567 C   0  0  0  0  0  0  0  0  0  0  0  0
    2.0563   -6.5019    5.1611 C   0  0  0  0  0  0  0  0  0  0  0  0
    3.3523   -7.0064    5.3559 C   0  0  0  0  0  0  0  0  0  0  0  0
    4.2244   -7.2420    4.2180 C   0  0  0  0  0  0  0  0  0  0  0  0
    5.8306   -6.5847    4.1261 S   0  0  0  0  0  0  0  0  0  0  0  0
    6.1026   -7.2652    2.5587 C   0  0  0  0  0  0  0  0  0  0  0  0
    7.3620   -7.0124    1.8061 C   0  0  0  0  0  0  0  0  0  0  0  0
    7.2107   -5.7989    0.8851 C   0  0  0  0  0  0  0  0  0  0  0  0
    5.0050   -7.9602    2.1449 C   0  0  0  0  0  0  0  0  0  0  0  0
    3.9397   -7.9527    3.0833 C   0  0  0  0  0  0  0  0  0  0  0  0
    2.4791   -8.8188    2.8272 Cl  0  0  0  0  0  0  0  0  0  0  0  0
    4.9011   -8.7744    0.6380 Cl  0  0  0  0  0  0  0  0  0  0  0  0
    3.7293   -7.2767    6.6646 C   0  0  0  0  0  0  0  0  0  0  0  0
    5.2726   -7.9022    7.1714 S   0  0  0  0  0  0  0  0  0  0  0  0
    1.4780   -6.0458    3.9519 C   0  0  0  0  0  0  0  0  0  0  0  0
    0.1949   -5.6103    4.0948 C   0  0  0  0  0  0  0  0  0  0  0  0
   -0.3675   -5.7268    5.7459 S   0  0  0  0  0  0  0  0  0  0  0  0
   -0.6400   -5.1238    3.0397 C   0  0  0  0  0  0  0  0  0  0  0  0
   -0.2071   -4.5897    1.8629 C   0  0  0  0  0  0  0  0  0  0  0  0
   -1.2561   -4.2722    0.9672 C   0  0  0  0  0  0  0  0  0  0  0  0
   -1.1583   -3.6736   -0.3005 C   0  0  0  0  0  0  0  0  0  0  0  0
    0.1358   -3.3264   -0.8623 C   0  0  0  0  0  0  0  0  0  0  0  0
    0.4643   -1.7045   -1.4021 S   0  0  0  0  0  0  0  0  0  0  0  0
    2.0999   -2.0825   -1.8196 C   0  0  0  0  0  0  0  0  0  0  0  0
    3.0259   -1.0436   -2.3482 C   0  0  0  0  0  0  0  0  0  0  0  0
    3.6540   -0.2315   -1.2133 C   0  0  0  0  0  0  0  0  0  0  0  0
    2.3619   -3.3911   -1.5456 C   0  0  0  0  0  0  0  0  0  0  0  0
    3.8820   -4.1392   -1.8160 Cl  0  0  0  0  0  0  0  0  0  0  0  0
    1.2530   -4.1006   -1.0078 C   0  0  0  0  0  0  0  0  0  0  0  0
    1.3245   -5.7810   -0.6581 Cl  0  0  0  0  0  0  0  0  0  0  0  0
   -2.3504   -3.3718   -0.9452 C   0  0  0  0  0  0  0  0  0  0  0  0
   -3.6215   -3.6544   -0.3883 C   0  0  0  0  0  0  0  0  0  0  0  0
   -3.7179   -4.2794    0.8651 C   0  0  0  0  0  0  0  0  0  0  0  0
   -5.0040   -4.5812    1.4722 C   0  0  0  0  0  0  0  0  0  0  0  0
   -6.2058   -3.3480    1.7215 S   0  0  0  0  0  0  0  0  0  0  0  0
   -7.3120   -4.4573    2.4570 C   0  0  0  0  0  0  0  0  0  0  0  0
   -8.6280   -4.0019    2.9819 C   0  0  0  0  0  0  0  0  0  0  0  0
   -8.4944   -3.4716    4.4115 C   0  0  0  0  0  0  0  0  0  0  0  0
   -6.7639   -5.7033    2.5070 C   0  0  0  0  0  0  0  0  0  0  0  0
   -5.4577   -5.7784    1.9495 C   0  0  0  0  0  0  0  0  0  0  0  0
   -4.5927   -7.2519    1.8299 Cl  0  0  0  0  0  0  0  0  0  0  0  0
   -7.5612   -7.0714    3.1654 Cl  0  0  0  0  0  0  0  0  0  0  0  0
   -2.5263   -4.5712    1.5177 C   0  0  0  0  0  0  0  0  0  0  0  0
   -2.3823   -5.2359    3.1194 S   0  0  0  0  0  0  0  0  0  0  0  0
   -4.6742   -3.1823   -1.2186 C   0  0  0  0  0  0  0  0  0  0  0  0
   -4.2366   -2.5499   -2.3357 C   0  0  0  0  0  0  0  0  0  0  0  0
   -2.4942   -2.5814   -2.4921 S   0  0  0  0  0  0  0  0  0  0  0  0
   -5.0740   -1.6924   -3.2115 C   0  0  0  0  0  0  0  0  0  0  0  0
   -6.2681   -1.8839   -3.4597 N   0  0  0  0  0  2  0  0  0  0  0  0
   -4.4121   -0.5393   -3.6694 N   0  0  0  0  0  0  0  0  0  0  0  0
   -3.9309    0.3238   -2.8702 C   0  0  0  0  0  0  0  0  0  0  0  0
   -3.9408    0.1561   -1.3891 C   0  0  0  0  0  0  0  0  0  0  0  0
   -2.8501   -0.0275   -0.6251 C   0  0  0  0  0  0  0  0  0  0  0  0
   -3.0874   -0.3673    1.0531 S   0  0  0  0  0  0  0  0  0  0  0  0
   -4.7856   -0.2660    0.9595 C   0  0  0  0  0  0  0  0  0  0  0  0
   -5.4794    0.0626   -0.5646 S   0  0  0  0  0  3  0  0  0  0  0  0
   -3.2946    1.5060   -3.3846 C   0  0  0  0  0  0  0  0  0  0  0  0
   -2.4711    2.3606   -2.7089 C   0  0  0  0  0  0  0  0  0  0  0  0
   -1.8969    3.3484   -3.5395 C   0  0  0  0  0  0  0  0  0  0  0  0
   -0.9313    4.3093   -3.1912 C   0  0  0  0  0  0  0  0  0  0  0  0
   -0.2855    4.2760   -1.8919 C   0  0  0  0  0  0  0  0  0  0  0  0
   -0.1084    5.6988   -0.9123 S   0  0  0  0  0  0  0  0  0  0  0  0
    0.7028    4.8273    0.3472 C   0  0  0  0  0  0  0  0  0  0  0  0
    1.1719    5.5193    1.5797 C   0  0  0  0  0  0  0  0  0  0  0  0
    2.1266    6.6670    1.2526 C   0  0  0  0  0  0  0  0  0  0  0  0
    0.8258    3.5125    0.0089 C   0  0  0  0  0  0  0  0  0  0  0  0
    1.5725    2.3226    1.0000 Cl  0  0  0  0  0  0  0  0  0  0  0  0
    0.2723    3.1975   -1.2596 C   0  0  0  0  0  0  0  0  0  0  0  0
    0.4107    1.6273   -1.9550 Cl  0  0  0  0  0  0  0  0  0  0  0  0
   -0.6031    5.2499   -4.1571 C   0  0  0  0  0  0  0  0  0  0  0  0
   -1.1600    5.2350   -5.4631 C   0  0  0  0  0  0  0  0  0  0  0  0
   -2.0346    4.2003   -5.8434 C   0  0  0  0  0  0  0  0  0  0  0  0
   -2.5237    4.0904   -7.2063 C   0  0  0  0  0  0  0  0  0  0  0  0
   -4.2176    3.9151   -7.5512 S   0  0  0  0  0  0  0  0  0  0  0  0
   -3.9429    3.8568   -9.2572 C   0  0  0  0  0  0  0  0  0  0  0  0
   -5.0658    3.6508  -10.2123 C   0  0  0  0  0  0  0  0  0  0  0  0
   -5.3498    2.1583  -10.4004 C   0  0  0  0  0  0  0  0  0  0  0  0
   -2.6097    3.9529   -9.5286 C   0  0  0  0  0  0  0  0  0  0  0  0
   -1.8023    4.0924   -8.3692 C   0  0  0  0  0  0  0  0  0  0  0  0
   -0.0896    4.1647   -8.4407 Cl  0  0  0  0  0  0  0  0  0  0  0  0
   -1.9507    3.9184  -11.1123 Cl  0  0  0  0  0  0  0  0  0  0  0  0
   -2.3955    3.2810   -4.8641 C   0  0  0  0  0  0  0  0  0  0  0  0
   -3.4519    1.9093   -5.0732 S   0  0  0  0  0  0  0  0  0  0  0  0
   -0.7036    6.3361   -6.2369 C   0  0  0  0  0  0  0  0  0  0  0  0
    0.1968    7.1029   -5.5704 C   0  0  0  0  0  0  0  0  0  0  0  0
    0.5344    6.5487   -3.9579 S   0  0  0  0  0  0  0  0  0  0  0  0
    0.9435    8.2937   -5.9232 C   0  0  0  0  0  0  0  0  0  0  0  0
    0.6299    8.9948   -6.9499 N   0  0  0  0  0  2  0  0  0  0  0  0
    1.9199    8.5020   -4.9926 N   0  0  0  0  0  0  0  0  0  0  0  0
    2.9843    9.1967   -5.3014 C   0  0  0  0  0  0  0  0  0  0  0  0
    3.0917    9.8740   -6.5681 C   0  0  0  0  0  0  0  0  0  0  0  0
    4.1424    9.8389   -7.4274 C   0  0  0  0  0  0  0  0  0  0  0  0
    3.8144   10.1681   -9.0639 S   0  0  0  0  0  0  0  0  0  0  0  0
    2.2698   10.8836   -8.7315 C   0  0  0  0  0  0  0  0  0  0  0  0
    1.5458   10.4437   -7.2251 S   0  0  0  0  0  3  0  0  0  0  0  0
    4.3621    8.5491   -3.4865 C   0  0  0  0  0  0  0  0  0  0  0  0
    4.0879    9.1220   -4.5361 N   0  0  0  0  0  2  0  0  0  0  0  0
    4.9668    8.2749   -2.4887 N   0  0  0  0  0  0  0  0  0  0  0  0
    5.1894    7.3063   -1.5820 C   0  0  0  0  0  0  0  0  0  0  0  0
    4.6170    6.0638   -1.6547 C   0  0  0  0  0  0  0  0  0  0  0  0
    4.7975    4.9984   -0.7633 C   0  0  0  0  0  0  0  0  0  0  0  0
    4.0192    3.5468   -1.1048 S   0  0  0  0  0  0  0  0  0  0  0  0
    3.2530    4.0460   -2.4993 C   0  0  0  0  0  0  0  0  0  0  0  0
    3.5265    5.6600   -3.0106 S   0  0  0  0  0  3  0  0  0  0  0  0
    5.4316   -8.2643    9.5700 H   0  0  0  0  0  0  0  0  0  0  0  0
    2.9939   -7.4355    9.9457 H   0  0  0  0  0  0  0  0  0  0  0  0
   -1.6298   -5.5274   12.5488 H   0  0  0  0  0  0  0  0  0  0  0  0
    0.0375   -4.9378   12.6956 H   0  0  0  0  0  0  0  0  0  0  0  0
   -1.5687   -3.0439   12.7078 H   0  0  0  0  0  0  0  0  0  0  0  0
   -0.5362   -2.9685   11.2753 H   0  0  0  0  0  0  0  0  0  0  0  0
   -2.1980   -3.5511   11.1369 H   0  0  0  0  0  0  0  0  0  0  0  0
    7.5966   -7.8947    1.2070 H   0  0  0  0  0  0  0  0  0  0  0  0
    8.1768   -6.8392    2.5104 H   0  0  0  0  0  0  0  0  0  0  0  0
    6.9845   -4.9086    1.4671 H   0  0  0  0  0  0  0  0  0  0  0  0
    6.4047   -5.9635    0.1747 H   0  0  0  0  0  0  0  0  0  0  0  0
    8.1318   -5.6317    0.3335 H   0  0  0  0  0  0  0  0  0  0  0  0
    1.9926   -6.0484    3.0096 H   0  0  0  0  0  0  0  0  0  0  0  0
    0.8292   -4.4031    1.6558 H   0  0  0  0  0  0  0  0  0  0  0  0
    3.8112   -1.5386   -2.9226 H   0  0  0  0  0  0  0  0  0  0  0  0
    2.4766   -0.3742   -3.0128 H   0  0  0  0  0  0  0  0  0  0  0  0
    2.8836    0.2868   -0.6484 H   0  0  0  0  0  0  0  0  0  0  0  0
    4.1996   -0.8862   -0.5386 H   0  0  0  0  0  0  0  0  0  0  0  0
    4.3439    0.5040   -1.6191 H   0  0  0  0  0  0  0  0  0  0  0  0
   -9.3184   -4.8471    2.9697 H   0  0  0  0  0  0  0  0  0  0  0  0
   -9.0245   -3.2163    2.3363 H   0  0  0  0  0  0  0  0  0  0  0  0
   -8.1111   -4.2494    5.0670 H   0  0  0  0  0  0  0  0  0  0  0  0
   -9.4639   -3.1500    4.7817 H   0  0  0  0  0  0  0  0  0  0  0  0
   -7.8110   -2.6259    4.4396 H   0  0  0  0  0  0  0  0  0  0  0  0
   -5.7188   -3.2643   -0.9806 H   0  0  0  0  0  0  0  0  0  0  0  0
   -1.8382   -0.0321   -0.9891 H   0  0  0  0  0  0  0  0  0  0  0  0
   -5.3992   -0.4477    1.8157 H   0  0  0  0  0  0  0  0  0  0  0  0
   -2.2865    2.3021   -1.6526 H   0  0  0  0  0  0  0  0  0  0  0  0
    1.6680    4.7882    2.2204 H   0  0  0  0  0  0  0  0  0  0  0  0
    0.3090    5.9170    2.1203 H   0  0  0  0  0  0  0  0  0  0  0  0
    3.0118    6.2947    0.7428 H   0  0  0  0  0  0  0  0  0  0  0  0
    1.6369    7.3927    0.6080 H   0  0  0  0  0  0  0  0  0  0  0  0
    2.4370    7.1657    2.1666 H   0  0  0  0  0  0  0  0  0  0  0  0
   -5.9606    4.1456   -9.8313 H   0  0  0  0  0  0  0  0  0  0  0  0
   -4.7988    4.0968  -11.1722 H   0  0  0  0  0  0  0  0  0  0  0  0
   -6.1725    2.0206  -11.0966 H   0  0  0  0  0  0  0  0  0  0  0  0
   -4.4711    1.6545  -10.7950 H   0  0  0  0  0  0  0  0  0  0  0  0
   -5.6149    1.7016   -9.4500 H   0  0  0  0  0  0  0  0  0  0  0  0
   -1.0313    6.5569   -7.2352 H   0  0  0  0  0  0  0  0  0  0  0  0
    5.1163    9.4710   -7.1598 H   0  0  0  0  0  0  0  0  0  0  0  0
    1.6239   11.0071   -9.5834 H   0  0  0  0  0  0  0  0  0  0  0  0
    5.8661    7.5678   -0.7861 H   0  0  0  0  0  0  0  0  0  0  0  0
    5.4290    5.0523    0.1017 H   0  0  0  0  0  0  0  0  0  0  0  0
    2.6173    3.3954   -3.0617 H   0  0  0  0  0  0  0  0  0  0  0  0
  1  2  2  0  0  0  0
  2  3  1  0  0  0  0
  3  4  2  0  0  0  0
  4  5  1  0  0  0  0
  5  6  1  0  0  0  0
  6  7  1  0  0  0  0
  7  8  1  0  0  0  0
  8  9  1  0  0  0  0
  7 10  2  0  0  0  0
 10 11  1  0  0  0  0
 10 12  1  0  0  0  0
 12 13  1  0  0  0  0
  4 14  1  0  0  0  0
 14 15  2  0  0  0  0
 15 16  1  0  0  0  0
 16 17  1  0  0  0  0
 17 18  1  0  0  0  0
 18 19  1  0  0  0  0
 19 20  1  0  0  0  0
 20 21  1  0  0  0  0
 19 22  2  0  0  0  0
 22 23  1  0  0  0  0
 23 24  1  0  0  0  0
 22 25  1  0  0  0  0
 16 26  2  0  0  0  0
 26 27  1  0  0  0  0
 15 28  1  0  0  0  0
 28 29  2  0  0  0  0
 29 30  1  0  0  0  0
 29 31  1  0  0  0  0
 31 32  2  0  0  0  0
 32 33  1  0  0  0  0
 33 34  2  0  0  0  0
 34 35  1  0  0  0  0
 35 36  1  0  0  0  0
 36 37  1  0  0  0  0
 37 38  1  0  0  0  0
 38 39  1  0  0  0  0
 37 40  2  0  0  0  0
 40 41  1  0  0  0  0
 40 42  1  0  0  0  0
 42 43  1  0  0  0  0
 34 44  1  0  0  0  0
 44 45  2  0  0  0  0
 45 46  1  0  0  0  0
 46 47  1  0  0  0  0
 47 48  1  0  0  0  0
 48 49  1  0  0  0  0
 49 50  1  0  0  0  0
 50 51  1  0  0  0  0
 49 52  2  0  0  0  0
 52 53  1  0  0  0  0
 53 54  1  0  0  0  0
 52 55  1  0  0  0  0
 46 56  2  0  0  0  0
 56 57  1  0  0  0  0
 45 58  1  0  0  0  0
 58 59  2  0  0  0  0
 59 60  1  0  0  0  0
 59 61  1  0  0  0  0
 61 62  2  0  0  0  0
 61 63  1  0  0  0  0
 63 64  2  0  0  0  0
 64 65  1  0  0  0  0
 65 66  2  0  0  0  0
 66 67  1  0  0  0  0
 67 68  1  0  0  0  0
 68 69  2  0  0  0  0
 64 70  1  0  0  0  0
 70 71  2  0  0  0  0
 71 72  1  0  0  0  0
 72 73  2  0  0  0  0
 73 74  1  0  0  0  0
 74 75  1  0  0  0  0
 75 76  1  0  0  0  0
 76 77  1  0  0  0  0
 77 78  1  0  0  0  0
 76 79  2  0  0  0  0
 79 80  1  0  0  0  0
 79 81  1  0  0  0  0
 81 82  1  0  0  0  0
 73 83  1  0  0  0  0
 83 84  2  0  0  0  0
 84 85  1  0  0  0  0
 85 86  1  0  0  0  0
 86 87  1  0  0  0  0
 87 88  1  0  0  0  0
 88 89  1  0  0  0  0
 89 90  1  0  0  0  0
 88 91  2  0  0  0  0
 91 92  1  0  0  0  0
 92 93  1  0  0  0  0
 91 94  1  0  0  0  0
 85 95  2  0  0  0  0
 95 96  1  0  0  0  0
 84 97  1  0  0  0  0
 97 98  2  0  0  0  0
 98 99  1  0  0  0  0
 98100  1  0  0  0  0
100101  2  0  0  0  0
100102  1  0  0  0  0
102103  2  0  0  0  0
103104  1  0  0  0  0
104105  2  0  0  0  0
105106  1  0  0  0  0
106107  1  0  0  0  0
107108  2  0  0  0  0
103109  1  0  0  0  0
109110  2  0  0  0  0
109111  1  0  0  0  0
111112  2  0  0  0  0
112113  1  0  0  0  0
113114  2  0  0  0  0
114115  1  0  0  0  0
115116  1  0  0  0  0
116117  2  0  0  0  0
 27  1  1  0  0  0  0
 57 31  1  0  0  0  0
 69 65  1  0  0  0  0
 96 70  1  0  0  0  0
108104  1  0  0  0  0
117113  1  0  0  0  0
 26  3  1  0  0  0  0
 56 33  1  0  0  0  0
 95 72  1  0  0  0  0
 12  5  2  0  0  0  0
 30 14  1  0  0  0  0
 42 35  2  0  0  0  0
 60 44  1  0  0  0  0
 81 74  2  0  0  0  0
 99 83  1  0  0  0  0
 23 17  2  0  0  0  0
 53 47  2  0  0  0  0
 92 86  2  0  0  0  0
  1118  1  0  0  0  0
  2119  1  0  0  0  0
  8120  1  0  0  0  0
  8121  1  0  0  0  0
  9122  1  0  0  0  0
  9123  1  0  0  0  0
  9124  1  0  0  0  0
 20125  1  0  0  0  0
 20126  1  0  0  0  0
 21127  1  0  0  0  0
 21128  1  0  0  0  0
 21129  1  0  0  0  0
 28130  1  0  0  0  0
 32131  1  0  0  0  0
 38132  1  0  0  0  0
 38133  1  0  0  0  0
 39134  1  0  0  0  0
 39135  1  0  0  0  0
 39136  1  0  0  0  0
 50137  1  0  0  0  0
 50138  1  0  0  0  0
 51139  1  0  0  0  0
 51140  1  0  0  0  0
 51141  1  0  0  0  0
 58142  1  0  0  0  0
 66143  1  0  0  0  0
 68144  1  0  0  0  0
 71145  1  0  0  0  0
 77146  1  0  0  0  0
 77147  1  0  0  0  0
 78148  1  0  0  0  0
 78149  1  0  0  0  0
 78150  1  0  0  0  0
 89151  1  0  0  0  0
 89152  1  0  0  0  0
 90153  1  0  0  0  0
 90154  1  0  0  0  0
 90155  1  0  0  0  0
 97156  1  0  0  0  0
105157  1  0  0  0  0
107158  1  0  0  0  0
112159  1  0  0  0  0
114160  1  0  0  0  0
116161  1  0  0  0  0
M  END
