108

C          9.25170        0.50430        5.87020
S          8.25480       -0.90810        5.95430
C          8.82820       -1.41310        4.42740
C          9.74890       -0.52020        3.88680
C          9.98720        0.58170        4.72450
C         10.20430       -1.01910        2.56320
O         10.99580       -0.51850        1.80310
C          9.44720       -2.29390        2.39840
C          8.64120       -2.49890        3.51720
S          7.72810       -3.93570        3.41020
C          8.42550       -4.29230        1.83690
C          9.33220       -3.31310        1.45770
C          8.20410       -5.49710        1.10880
C          7.28360       -6.47790        1.25880
C          6.10770       -6.50910        2.06750
S          5.48390       -8.08460        2.55100
C          4.14520       -7.35050        3.31330
C          4.16770       -5.95880        3.18810
C          5.27070       -5.48950        2.47990
C          2.97790       -5.38190        3.86960
O          2.67210       -4.22180        3.98970
C          2.26340       -6.58360        4.38220
C          2.98480       -7.73200        4.04310
S          2.22680       -9.15450        4.60530
C          0.90100       -8.21360        5.28360
C          1.09320       -6.85740        5.08230
C         -0.11670       -8.90270        6.00750
C         -1.36830       -8.48320        6.31090
C         -2.07060       -7.35360        5.79590
S         -3.39610       -6.67820        6.74080
C         -3.70850       -5.52070        5.52440
C         -2.85290       -5.66950        4.42700
C         -1.93560       -6.70310        4.58230
C         -3.16960       -4.63330        3.40920
O         -2.67470       -4.47410        2.32090
C         -4.26000       -3.85010        4.05060
C         -4.56790       -4.41180        5.29400
S         -5.81160       -3.55250        6.09070
C         -5.92980       -2.41820        4.74720
C         -5.02070       -2.72880        3.74720
C         -6.82410       -1.31820        4.86210
C         -7.19120       -0.44300        3.89130
C         -6.96390       -0.54930        2.48910
S         -6.55280        0.86900        1.58140
C         -6.34610       -0.01730        0.10270
C         -6.70140       -1.36520        0.28590
C         -7.04240       -1.66190        1.64150
C         -7.45820       -2.96120        1.99540
C         -7.50260       -3.95170        1.05330
C         -7.91210       -5.34740        1.40300
C         -7.17280       -3.64770       -0.28790
C         -6.80010       -2.39310       -0.67340
C         -5.78910        0.63550       -1.02080
S         -5.68920        2.39680       -1.03480
C         -4.85420        2.36320       -2.52630
C         -4.67490        1.05750       -2.99750
C         -5.19430        0.08750       -2.15060
C         -3.92080        1.09530       -4.28030
O         -3.60150        0.17230       -4.98790
C         -3.65740        2.54570       -4.47760
C         -4.23070        3.26820       -3.42210
S         -3.93130        4.94410       -3.55470
C         -3.01170        4.68970       -5.03360
C         -2.97590        3.34650       -5.38420
C         -2.39830        5.80320       -5.65650
C         -1.63260        5.74480       -6.77510
C         -0.96910        6.85010       -7.35820
S         -1.06230        8.46430       -6.66350
C         -0.02060        9.06720       -7.87560
C          0.37660        8.07670       -8.77760
C         -0.15950        6.82780       -8.48500
C          1.28900        8.67390       -9.79360
O          1.82580        8.12950      -10.72660
C          1.37860       10.09830       -9.37770
C          0.59030       10.29940       -8.24230
S          0.64940       11.91480       -7.69660
C          1.74700       12.34150       -8.99790
C          2.03090       11.25630       -9.80170
C          2.21410       13.69640       -9.08460
C          3.05690       14.16130      -10.00580
H          9.22690        1.19740        6.68750
H         10.66160        1.38630        4.49600
H          9.87210       -3.34650        0.52880
H          8.94880       -5.65530        0.33760
H          7.44190       -7.37880        0.67860
H          5.42680       -4.45680        2.23100
H          0.42520       -6.10480        5.45750
H          0.17990       -9.87450        6.38180
H         -1.93050       -9.08110        7.01710
H         -1.21730       -6.99040        3.83710
H         -4.88800       -2.13870        2.86130
H         -7.18980       -1.13180        5.86360
H         -7.68670        0.46650        4.20920
H         -7.75810       -3.15670        3.01310
H         -8.77650       -5.65000        0.81420
H         -7.10110       -6.03950        1.18160
H         -8.16090       -5.42860        2.45740
H         -7.24420       -4.43380       -1.02510
H         -6.61570       -2.18210       -1.71340
H         -5.09050       -0.96660       -2.32070
H         -2.46620        2.97340       -6.25270
H         -2.54560        6.76160       -5.17460
H         -1.48000        4.79960       -7.27660
H          0.02680        5.93490       -9.05340
H          2.68210       11.30200      -10.65450
H          1.83080       14.36200       -8.32200
H          3.46320       13.53490      -10.78040
H          3.36610       15.19110      -10.00820
