
  xtb     03032211093D
 energy: -278.056271285022 gnorm: 0.000282850293 xtb: 6.4.1 (unknown)
166183  0     0  0            999 V2000
    5.1611    2.2143   13.3756 C   0  0  0  0  0  0  0  0  0  0  0  0
    4.9251    2.2093   11.6866 S   0  0  0  0  0  0  0  0  0  0  0  0
    3.1967    2.2692   11.8479 C   0  0  0  0  0  0  0  0  0  0  0  0
    2.8319    2.2504   13.1946 C   0  0  0  0  0  0  0  0  0  0  0  0
    3.9705    2.2353   14.0681 C   0  0  0  0  0  0  0  0  0  0  0  0
    3.7820    2.2228   15.4713 C   0  0  0  0  0  0  0  0  0  0  0  0
    2.5218    2.1834   15.9903 C   0  0  0  0  0  0  0  0  0  0  0  0
    2.2765    2.1704   17.4676 C   0  0  0  0  0  0  0  0  0  0  0  0
    1.4033    2.1303   15.1152 C   0  0  0  0  0  0  0  0  0  0  0  0
    1.5403    2.1590   13.7613 C   0  0  0  0  0  0  0  0  0  0  0  0
    2.3740    2.3176   10.6877 C   0  0  0  0  0  0  0  0  0  0  0  0
    2.7932    1.3974    9.2844 S   0  0  0  0  0  0  0  0  0  0  0  0
    1.3875    1.9122    8.4124 C   0  0  0  0  0  0  0  0  0  0  0  0
    0.6366    2.8154    9.1730 C   0  0  0  0  0  0  0  0  0  0  0  0
    1.2047    3.0527   10.4649 C   0  0  0  0  0  0  0  0  0  0  0  0
    0.6321    4.0222   11.3157 C   0  0  0  0  0  0  0  0  0  0  0  0
   -0.4904    4.7007   10.9318 C   0  0  0  0  0  0  0  0  0  0  0  0
   -1.1206    5.7355   11.8112 C   0  0  0  0  0  0  0  0  0  0  0  0
   -1.0608    4.4412    9.6619 C   0  0  0  0  0  0  0  0  0  0  0  0
   -0.5144    3.5414    8.7970 C   0  0  0  0  0  0  0  0  0  0  0  0
    1.1615    1.4148    7.1006 C   0  0  0  0  0  0  0  0  0  0  0  0
   -0.0063    1.3255    6.3954 C   0  0  0  0  0  0  0  0  0  0  0  0
    0.1519    0.7982    5.0918 C   0  0  0  0  0  0  0  0  0  0  0  0
   -0.8428    0.5804    4.1269 C   0  0  0  0  0  0  0  0  0  0  0  0
   -2.2472    0.9653    4.3116 C   0  0  0  0  0  0  0  0  0  0  0  0
   -2.6046    2.2643    4.6675 C   0  0  0  0  0  0  0  0  0  0  0  0
   -3.9298    2.6450    4.6863 C   0  0  0  0  0  0  0  0  0  0  0  0
   -4.9476    1.7458    4.3738 C   0  0  0  0  0  0  0  0  0  0  0  0
   -6.6107    2.3475    4.3781 S   0  0  0  0  0  0  0  0  0  0  0  0
   -7.3716    1.5326    2.9229 C   0  0  0  0  0  0  0  0  0  0  0  0
   -6.6068    1.8006    1.6426 C   0  0  0  0  0  0  0  0  0  0  0  0
   -4.5793    0.4324    4.0988 C   0  0  0  0  0  0  0  0  0  0  0  0
   -5.5136   -0.5145    3.8662 F   0  0  0  0  0  0  0  0  0  0  0  0
   -3.2564    0.0461    4.0441 C   0  0  0  0  0  0  0  0  0  0  0  0
   -0.4326    0.0275    2.9245 C   0  0  0  0  0  0  0  0  0  0  0  0
    0.9088   -0.3211    2.6395 C   0  0  0  0  0  0  0  0  0  0  0  0
    1.9011   -0.1290    3.6175 C   0  0  0  0  0  0  0  0  0  0  0  0
    3.2890   -0.5328    3.3622 C   0  0  0  0  0  0  0  0  0  0  0  0
    3.5711   -1.8180    2.9008 C   0  0  0  0  0  0  0  0  0  0  0  0
    4.8687   -2.2003    2.6345 C   0  0  0  0  0  0  0  0  0  0  0  0
    5.9288   -1.3175    2.8156 C   0  0  0  0  0  0  0  0  0  0  0  0
    7.5700   -1.8894    2.4596 S   0  0  0  0  0  0  0  0  0  0  0  0
    8.2007   -0.5660    1.3615 C   0  0  0  0  0  0  0  0  0  0  0  0
    7.3661   -0.4414    0.1019 C   0  0  0  0  0  0  0  0  0  0  0  0
    5.6381   -0.0501    3.3089 C   0  0  0  0  0  0  0  0  0  0  0  0
    4.3434    0.3490    3.5737 C   0  0  0  0  0  0  0  0  0  0  0  0
    6.6278    0.8404    3.5326 F   0  0  0  0  0  0  0  0  0  0  0  0
    1.4976    0.4455    4.8124 C   0  0  0  0  0  0  0  0  0  0  0  0
    2.5266    0.7981    6.1746 S   0  0  0  0  0  0  0  0  0  0  0  0
    1.0658   -0.7617    1.3000 C   0  0  0  0  0  0  0  0  0  0  0  0
   -0.0952   -0.7571    0.5858 C   0  0  0  0  0  0  0  0  0  0  0  0
   -1.4659   -0.2287    1.5449 S   0  0  0  0  0  0  0  0  0  0  0  0
   -0.3091   -1.0613   -0.7881 C   0  0  0  0  0  0  0  0  0  0  0  0
   -1.4946   -0.9799   -1.4560 C   0  0  0  0  0  0  0  0  0  0  0  0
   -1.3933   -1.2633   -2.8380 C   0  0  0  0  0  0  0  0  0  0  0  0
   -2.4291   -1.2712   -3.7902 C   0  0  0  0  0  0  0  0  0  0  0  0
   -3.7907   -0.8796   -3.4082 C   0  0  0  0  0  0  0  0  0  0  0  0
   -4.0154    0.2981   -2.6939 C   0  0  0  0  0  0  0  0  0  0  0  0
   -5.2861    0.6496   -2.2970 C   0  0  0  0  0  0  0  0  0  0  0  0
   -6.3866   -0.1564   -2.5886 C   0  0  0  0  0  0  0  0  0  0  0  0
   -7.9476    0.3669   -1.9502 S   0  0  0  0  0  0  0  0  0  0  0  0
   -9.1724   -0.2599   -3.1669 C   0  0  0  0  0  0  0  0  0  0  0  0
  -10.4381    0.5667   -3.0549 C   0  0  0  0  0  0  0  0  0  0  0  0
   -6.1498   -1.3234   -3.3082 C   0  0  0  0  0  0  0  0  0  0  0  0
   -7.1605   -2.1702   -3.6113 F   0  0  0  0  0  0  0  0  0  0  0  0
   -4.8826   -1.6788   -3.7260 C   0  0  0  0  0  0  0  0  0  0  0  0
   -2.0827   -1.6493   -5.0750 C   0  0  0  0  0  0  0  0  0  0  0  0
   -0.7586   -1.9894   -5.4527 C   0  0  0  0  0  0  0  0  0  0  0  0
    0.2774   -1.9806   -4.4995 C   0  0  0  0  0  0  0  0  0  0  0  0
    1.6456   -2.3661   -4.8594 C   0  0  0  0  0  0  0  0  0  0  0  0
    2.7353   -1.5820   -4.4924 C   0  0  0  0  0  0  0  0  0  0  0  0
    4.0252   -1.9466   -4.8256 C   0  0  0  0  0  0  0  0  0  0  0  0
    4.2751   -3.1168   -5.5329 C   0  0  0  0  0  0  0  0  0  0  0  0
    5.8676   -3.6875   -6.0280 S   0  0  0  0  0  0  0  0  0  0  0  0
    7.0202   -2.7694   -4.9496 C   0  0  0  0  0  0  0  0  0  0  0  0
    6.9029   -3.1794   -3.4940 C   0  0  0  0  0  0  0  0  0  0  0  0
    3.1731   -3.8887   -5.9040 C   0  0  0  0  0  0  0  0  0  0  0  0
    1.8833   -3.5372   -5.5784 C   0  0  0  0  0  0  0  0  0  0  0  0
    3.3728   -5.0240   -6.6064 F   0  0  0  0  0  0  0  0  0  0  0  0
   -0.0699   -1.6025   -3.2123 C   0  0  0  0  0  0  0  0  0  0  0  0
    1.0123   -1.5287   -1.8411 S   0  0  0  0  0  0  0  0  0  0  0  0
   -0.6606   -2.2587   -6.8337 C   0  0  0  0  0  0  0  0  0  0  0  0
   -1.8466   -2.1678   -7.5170 C   0  0  0  0  0  0  0  0  0  0  0  0
   -3.1621   -1.7125   -6.4455 S   0  0  0  0  0  0  0  0  0  0  0  0
   -2.0098   -2.4279   -8.8987 C   0  0  0  0  0  0  0  0  0  0  0  0
   -0.6098   -2.9480   -9.7862 S   0  0  0  0  0  0  0  0  0  0  0  0
   -1.4749   -3.1040  -11.2804 C   0  0  0  0  0  0  0  0  0  0  0  0
   -2.8258   -2.7640  -11.0871 C   0  0  0  0  0  0  0  0  0  0  0  0
   -3.1259   -2.3792   -9.7416 C   0  0  0  0  0  0  0  0  0  0  0  0
   -4.4412   -2.0076   -9.4002 C   0  0  0  0  0  0  0  0  0  0  0  0
   -5.4361   -2.0321  -10.3386 C   0  0  0  0  0  0  0  0  0  0  0  0
   -6.8397   -1.6391   -9.9993 C   0  0  0  0  0  0  0  0  0  0  0  0
   -5.1379   -2.4494  -11.6561 C   0  0  0  0  0  0  0  0  0  0  0  0
   -3.8752   -2.8059  -12.0273 C   0  0  0  0  0  0  0  0  0  0  0  0
   -0.7878   -3.4650  -12.4640 C   0  0  0  0  0  0  0  0  0  0  0  0
   -1.4304   -3.0630  -14.0329 S   0  0  0  0  0  0  0  0  0  0  0  0
   -0.0699   -3.6823  -14.8490 C   0  0  0  0  0  0  0  0  0  0  0  0
    0.8658   -4.1983  -13.9801 C   0  0  0  0  0  0  0  0  0  0  0  0
    0.4667   -4.0815  -12.6073 C   0  0  0  0  0  0  0  0  0  0  0  0
    1.3151   -4.6069  -11.6119 C   0  0  0  0  0  0  0  0  0  0  0  0
    2.5117   -5.1815  -11.9452 C   0  0  0  0  0  0  0  0  0  0  0  0
    3.4223   -5.7417  -10.8986 C   0  0  0  0  0  0  0  0  0  0  0  0
    2.9053   -5.2591  -13.3059 C   0  0  0  0  0  0  0  0  0  0  0  0
    2.1086   -4.7934  -14.3039 C   0  0  0  0  0  0  0  0  0  0  0  0
    6.1556    2.1979   13.7743 H   0  0  0  0  0  0  0  0  0  0  0  0
    4.6509    2.2337   16.1129 H   0  0  0  0  0  0  0  0  0  0  0  0
    3.2125    2.2027   18.0191 H   0  0  0  0  0  0  0  0  0  0  0  0
    1.6706    3.0287   17.7570 H   0  0  0  0  0  0  0  0  0  0  0  0
    1.7334    1.2700   17.7528 H   0  0  0  0  0  0  0  0  0  0  0  0
    0.4182    2.0567   15.5528 H   0  0  0  0  0  0  0  0  0  0  0  0
    0.6782    2.0925   13.1156 H   0  0  0  0  0  0  0  0  0  0  0  0
    1.1083    4.2392   12.2596 H   0  0  0  0  0  0  0  0  0  0  0  0
   -1.1337    6.7022   11.3088 H   0  0  0  0  0  0  0  0  0  0  0  0
   -2.1521    5.4638   12.0336 H   0  0  0  0  0  0  0  0  0  0  0  0
   -0.5763    5.8355   12.7467 H   0  0  0  0  0  0  0  0  0  0  0  0
   -1.9395    4.9985    9.3710 H   0  0  0  0  0  0  0  0  0  0  0  0
   -0.9397    3.4047    7.8166 H   0  0  0  0  0  0  0  0  0  0  0  0
   -0.9684    1.5709    6.8040 H   0  0  0  0  0  0  0  0  0  0  0  0
   -1.8339    2.9902    4.8787 H   0  0  0  0  0  0  0  0  0  0  0  0
   -4.2034    3.6609    4.9259 H   0  0  0  0  0  0  0  0  0  0  0  0
   -8.3661    1.9772    2.8860 H   0  0  0  0  0  0  0  0  0  0  0  0
   -7.4670    0.4680    3.1243 H   0  0  0  0  0  0  0  0  0  0  0  0
   -5.6155    1.3517    1.6784 H   0  0  0  0  0  0  0  0  0  0  0  0
   -7.1459    1.3718    0.7995 H   0  0  0  0  0  0  0  0  0  0  0  0
   -6.4966    2.8710    1.4804 H   0  0  0  0  0  0  0  0  0  0  0  0
   -3.0261   -0.9813    3.8087 H   0  0  0  0  0  0  0  0  0  0  0  0
    2.7650   -2.5221    2.7608 H   0  0  0  0  0  0  0  0  0  0  0  0
    5.0847   -3.1945    2.2752 H   0  0  0  0  0  0  0  0  0  0  0  0
    8.2388    0.3668    1.9196 H   0  0  0  0  0  0  0  0  0  0  0  0
    9.2171   -0.8845    1.1316 H   0  0  0  0  0  0  0  0  0  0  0  0
    6.3521   -0.1242    0.3403 H   0  0  0  0  0  0  0  0  0  0  0  0
    7.8109    0.2955   -0.5642 H   0  0  0  0  0  0  0  0  0  0  0  0
    7.3141   -1.3976   -0.4151 H   0  0  0  0  0  0  0  0  0  0  0  0
    4.1708    1.3503    3.9361 H   0  0  0  0  0  0  0  0  0  0  0  0
    2.0102   -1.0407    0.8672 H   0  0  0  0  0  0  0  0  0  0  0  0
   -2.4176   -0.7353   -0.9616 H   0  0  0  0  0  0  0  0  0  0  0  0
   -3.1872    0.9529   -2.4703 H   0  0  0  0  0  0  0  0  0  0  0  0
   -5.4532    1.5609   -1.7439 H   0  0  0  0  0  0  0  0  0  0  0  0
   -8.7233   -0.1622   -4.1541 H   0  0  0  0  0  0  0  0  0  0  0  0
   -9.3666   -1.3093   -2.9507 H   0  0  0  0  0  0  0  0  0  0  0  0
  -10.2294    1.6153   -3.2550 H   0  0  0  0  0  0  0  0  0  0  0  0
  -11.1725    0.2115   -3.7745 H   0  0  0  0  0  0  0  0  0  0  0  0
  -10.8606    0.4841   -2.0560 H   0  0  0  0  0  0  0  0  0  0  0  0
   -4.7587   -2.6041   -4.2667 H   0  0  0  0  0  0  0  0  0  0  0  0
    2.5732   -0.6591   -3.9572 H   0  0  0  0  0  0  0  0  0  0  0  0
    4.8379   -1.3000   -4.5373 H   0  0  0  0  0  0  0  0  0  0  0  0
    8.0001   -3.0321   -5.3483 H   0  0  0  0  0  0  0  0  0  0  0  0
    6.8626   -1.7014   -5.0956 H   0  0  0  0  0  0  0  0  0  0  0  0
    7.0788   -4.2474   -3.3898 H   0  0  0  0  0  0  0  0  0  0  0  0
    7.6428   -2.6451   -2.9009 H   0  0  0  0  0  0  0  0  0  0  0  0
    5.9130   -2.9547   -3.1019 H   0  0  0  0  0  0  0  0  0  0  0  0
    1.0736   -4.1909   -5.8622 H   0  0  0  0  0  0  0  0  0  0  0  0
    0.2653   -2.4926   -7.3277 H   0  0  0  0  0  0  0  0  0  0  0  0
   -4.6602   -1.7049   -8.3884 H   0  0  0  0  0  0  0  0  0  0  0  0
   -7.1504   -0.7894  -10.6067 H   0  0  0  0  0  0  0  0  0  0  0  0
   -7.5232   -2.4618  -10.2063 H   0  0  0  0  0  0  0  0  0  0  0  0
   -6.9255   -1.3687   -8.9502 H   0  0  0  0  0  0  0  0  0  0  0  0
   -5.9396   -2.4872  -12.3790 H   0  0  0  0  0  0  0  0  0  0  0  0
   -3.6828   -3.1340  -13.0358 H   0  0  0  0  0  0  0  0  0  0  0  0
   -0.0269   -3.6395  -15.9188 H   0  0  0  0  0  0  0  0  0  0  0  0
    1.0179   -4.5711  -10.5764 H   0  0  0  0  0  0  0  0  0  0  0  0
    3.0162   -5.5956   -9.9015 H   0  0  0  0  0  0  0  0  0  0  0  0
    4.3980   -5.2599  -10.9496 H   0  0  0  0  0  0  0  0  0  0  0  0
    3.5728   -6.8087  -11.0608 H   0  0  0  0  0  0  0  0  0  0  0  0
    3.8576   -5.7133  -13.5389 H   0  0  0  0  0  0  0  0  0  0  0  0
    2.3992   -4.8678  -15.3411 H   0  0  0  0  0  0  0  0  0  0  0  0
  1  2  1  0  0  0  0
  2  3  1  0  0  0  0
  3  4  2  0  0  0  0
  4  5  1  0  0  0  0
  5  6  1  0  0  0  0
  6  7  2  0  0  0  0
  7  8  1  0  0  0  0
  7  9  1  0  0  0  0
  9 10  2  0  0  0  0
  3 11  1  0  0  0  0
 11 12  1  0  0  0  0
 12 13  1  0  0  0  0
 13 14  2  0  0  0  0
 14 15  1  0  0  0  0
 15 16  1  0  0  0  0
 16 17  2  0  0  0  0
 17 18  1  0  0  0  0
 17 19  1  0  0  0  0
 19 20  2  0  0  0  0
 13 21  1  0  0  0  0
 21 22  2  0  0  0  0
 22 23  1  0  0  0  0
 23 24  2  0  0  0  0
 24 25  1  0  0  0  0
 25 26  2  0  0  0  0
 26 27  1  0  0  0  0
 27 28  2  0  0  0  0
 28 29  1  0  0  0  0
 29 30  1  0  0  0  0
 30 31  1  0  0  0  0
 28 32  1  0  0  0  0
 32 33  1  0  0  0  0
 32 34  2  0  0  0  0
 24 35  1  0  0  0  0
 35 36  2  0  0  0  0
 36 37  1  0  0  0  0
 37 38  1  0  0  0  0
 38 39  2  0  0  0  0
 39 40  1  0  0  0  0
 40 41  2  0  0  0  0
 41 42  1  0  0  0  0
 42 43  1  0  0  0  0
 43 44  1  0  0  0  0
 41 45  1  0  0  0  0
 45 46  2  0  0  0  0
 45 47  1  0  0  0  0
 37 48  2  0  0  0  0
 48 49  1  0  0  0  0
 36 50  1  0  0  0  0
 50 51  2  0  0  0  0
 51 52  1  0  0  0  0
 51 53  1  0  0  0  0
 53 54  2  0  0  0  0
 54 55  1  0  0  0  0
 55 56  2  0  0  0  0
 56 57  1  0  0  0  0
 57 58  2  0  0  0  0
 58 59  1  0  0  0  0
 59 60  2  0  0  0  0
 60 61  1  0  0  0  0
 61 62  1  0  0  0  0
 62 63  1  0  0  0  0
 60 64  1  0  0  0  0
 64 65  1  0  0  0  0
 64 66  2  0  0  0  0
 56 67  1  0  0  0  0
 67 68  2  0  0  0  0
 68 69  1  0  0  0  0
 69 70  1  0  0  0  0
 70 71  2  0  0  0  0
 71 72  1  0  0  0  0
 72 73  2  0  0  0  0
 73 74  1  0  0  0  0
 74 75  1  0  0  0  0
 75 76  1  0  0  0  0
 73 77  1  0  0  0  0
 77 78  2  0  0  0  0
 77 79  1  0  0  0  0
 69 80  2  0  0  0  0
 80 81  1  0  0  0  0
 68 82  1  0  0  0  0
 82 83  2  0  0  0  0
 83 84  1  0  0  0  0
 83 85  1  0  0  0  0
 85 86  1  0  0  0  0
 86 87  1  0  0  0  0
 87 88  2  0  0  0  0
 88 89  1  0  0  0  0
 89 90  1  0  0  0  0
 90 91  2  0  0  0  0
 91 92  1  0  0  0  0
 91 93  1  0  0  0  0
 93 94  2  0  0  0  0
 87 95  1  0  0  0  0
 95 96  1  0  0  0  0
 96 97  1  0  0  0  0
 97 98  2  0  0  0  0
 98 99  1  0  0  0  0
 99100  1  0  0  0  0
100101  2  0  0  0  0
101102  1  0  0  0  0
101103  1  0  0  0  0
103104  2  0  0  0  0
  5  1  2  0  0  0  0
 15 11  2  0  0  0  0
 49 21  1  0  0  0  0
 81 53  1  0  0  0  0
 89 85  2  0  0  0  0
 99 95  2  0  0  0  0
 10  4  1  0  0  0  0
 20 14  1  0  0  0  0
 48 23  1  0  0  0  0
 80 55  1  0  0  0  0
 94 88  1  0  0  0  0
104 98  1  0  0  0  0
 34 25  1  0  0  0  0
 52 35  1  0  0  0  0
 66 57  1  0  0  0  0
 84 67  1  0  0  0  0
 46 38  1  0  0  0  0
 78 70  1  0  0  0  0
  1105  1  0  0  0  0
  6106  1  0  0  0  0
  8107  1  0  0  0  0
  8108  1  0  0  0  0
  8109  1  0  0  0  0
  9110  1  0  0  0  0
 10111  1  0  0  0  0
 16112  1  0  0  0  0
 18113  1  0  0  0  0
 18114  1  0  0  0  0
 18115  1  0  0  0  0
 19116  1  0  0  0  0
 20117  1  0  0  0  0
 22118  1  0  0  0  0
 26119  1  0  0  0  0
 27120  1  0  0  0  0
 30121  1  0  0  0  0
 30122  1  0  0  0  0
 31123  1  0  0  0  0
 31124  1  0  0  0  0
 31125  1  0  0  0  0
 34126  1  0  0  0  0
 39127  1  0  0  0  0
 40128  1  0  0  0  0
 43129  1  0  0  0  0
 43130  1  0  0  0  0
 44131  1  0  0  0  0
 44132  1  0  0  0  0
 44133  1  0  0  0  0
 46134  1  0  0  0  0
 50135  1  0  0  0  0
 54136  1  0  0  0  0
 58137  1  0  0  0  0
 59138  1  0  0  0  0
 62139  1  0  0  0  0
 62140  1  0  0  0  0
 63141  1  0  0  0  0
 63142  1  0  0  0  0
 63143  1  0  0  0  0
 66144  1  0  0  0  0
 71145  1  0  0  0  0
 72146  1  0  0  0  0
 75147  1  0  0  0  0
 75148  1  0  0  0  0
 76149  1  0  0  0  0
 76150  1  0  0  0  0
 76151  1  0  0  0  0
 78152  1  0  0  0  0
 82153  1  0  0  0  0
 90154  1  0  0  0  0
 92155  1  0  0  0  0
 92156  1  0  0  0  0
 92157  1  0  0  0  0
 93158  1  0  0  0  0
 94159  1  0  0  0  0
 97160  1  0  0  0  0
100161  1  0  0  0  0
102162  1  0  0  0  0
102163  1  0  0  0  0
102164  1  0  0  0  0
103165  1  0  0  0  0
104166  1  0  0  0  0
M  END
