234

C         -5.87450       -6.42130       18.29370
S         -5.72290       -7.50520       16.98840
C         -5.95140       -6.25310       15.79980
C         -6.15090       -5.02040       16.44260
C         -6.10220       -5.12970       17.87210
C         -6.27660       -3.98360       18.68310
C         -6.51010       -2.76870       18.10860
C         -6.68540       -1.52700       18.92670
C         -6.59770       -2.67480       16.69620
C         -6.42640       -3.75520       15.88290
C         -5.84410       -6.53210       14.41600
S         -5.47140       -5.25800       13.29980
C         -5.40060       -6.32400       11.93050
C         -5.67010       -7.63760       12.32780
C         -5.92450       -7.75820       13.73110
C         -6.25250       -9.02140       14.26160
C         -6.29150      -10.12810       13.45740
C         -6.63560      -11.47810       14.00420
C         -6.00400       -9.99980       12.07890
C         -5.71060       -8.79240       11.51960
C         -5.10160       -5.75050       10.67070
C         -4.85550       -4.41840       10.45690
C         -4.57600       -4.08270        9.11590
C         -4.24420       -2.81570        8.59940
C         -4.26290       -1.63720        9.47270
C         -3.17810       -0.76660        9.55190
C         -3.18590        0.28270       10.44650
C         -4.27740        0.51820       11.27970
S         -4.17580        1.87750       12.40710
C         -4.94290        1.22620       13.93930
C         -4.28170       -0.05200       14.41510
C         -5.38170       -0.31650       11.13870
F         -6.50480       -0.11010       11.86350
C         -5.37710       -1.38630       10.26890
C         -3.90640       -2.76220        7.25750
C         -3.92240       -3.90480        6.41930
C         -4.26260       -5.16990        6.93230
C         -4.24540       -6.34820        6.05710
C         -5.34220       -7.20140        5.95880
C         -5.33690       -8.24730        5.06080
C         -4.23600       -8.50160        4.24340
S         -4.35810       -9.86980        3.13130
C         -3.41810       -9.35720        1.64370
C         -3.93560       -8.06710        1.04030
C         -3.12120       -7.68460        4.40540
C         -3.12380       -6.61610        5.27770
F         -1.98610       -7.90670        3.70400
C         -4.59120       -5.22360        8.27430
S         -4.99350       -6.66500        9.17410
C         -3.59710       -3.57990        5.08290
C         -3.31100       -2.26120        4.88770
S         -3.45840       -1.32760        6.36440
C         -2.88110       -1.68110        3.65980
C         -2.53050       -0.39490        3.37750
C         -2.06600       -0.21390        2.04760
C         -1.57610        0.95370        1.43930
C         -1.49030        2.22240        2.17330
C         -0.86070        2.29490        3.41500
C         -0.80390        3.48710        4.10360
C         -1.36410        4.65340        3.58480
S         -1.20070        6.12510        4.55150
C         -2.80100        6.98750        4.33260
C         -3.97310        6.12820        4.76220
C         -1.95510        4.57380        2.32760
F         -2.48680        5.66790        1.74020
C         -2.03150        3.38360        1.63280
C         -1.15410        0.84240        0.12200
C         -1.19120       -0.37120       -0.61130
C         -1.69110       -1.53510       -0.00820
C         -1.72640       -2.84310       -0.67530
C         -2.90030       -3.59550       -0.68980
C         -2.91010       -4.87130       -1.20810
C         -1.75720       -5.44900       -1.73790
S         -1.90750       -7.09990       -2.35320
C         -0.30130       -7.88950       -1.96820
C          0.01430       -7.85270       -0.48670
C         -0.60690       -4.66600       -1.76840
C         -0.57930       -3.39090       -1.23730
F          0.54020       -5.13290       -2.30520
C         -2.11780       -1.41880        1.30450
S         -2.69620       -2.74330        2.27490
C         -0.66650       -0.21950       -1.91810
C         -0.20550        1.03900       -2.17700
S         -0.43640        2.12200       -0.82000
C          0.44890        1.49550       -3.36240
C          0.60970        0.81660       -4.53570
C          1.38430        1.51450       -5.49560
C          1.73680        1.09970       -6.79250
C          1.37340       -0.22510       -7.30770
C          0.80810       -0.37560       -8.57000
C          0.48770       -1.62340       -9.07000
C          0.72170       -2.77170       -8.32240
S          0.39130       -4.42480       -8.82560
C         -0.42770       -4.25810      -10.44770
C         -1.88070       -3.83780      -10.32390
C          1.29450       -2.60590       -7.05860
F          1.54540       -3.69750       -6.30850
C          1.61960       -1.37000       -6.55010
C          2.48640        1.99050       -7.54640
C          2.90770        3.25120       -7.05740
C          2.54630        3.67110       -5.76750
C          2.97040        4.98640       -5.27110
C          2.71710        6.13610       -6.01790
C          3.16720        7.36600       -5.58760
C          3.88610        7.49440       -4.40290
S          4.44000        9.11040       -3.93000
C          6.21030        8.81670       -3.56090
C          6.95800        8.29890       -4.77360
C          4.09140        6.34640       -3.64430
C          3.65190        5.10720       -4.06510
F          4.74790        6.41140       -2.46730
C          1.79860        2.78250       -5.01270
S          1.22830        3.06330       -3.39070
C          3.75580        3.91890       -7.97450
C          3.97220        3.22350       -9.12570
S          3.11810        1.69260       -9.14790
C          4.81530        3.61260      -10.20790
C          5.01790        2.98700      -11.40010
C          5.97500        3.63450      -12.22580
C          6.39470        3.27570      -13.51650
C          5.89460        2.06810      -14.18300
C          5.40030        2.12380      -15.48280
C          4.94200        0.98940      -16.12320
C          4.97420       -0.24770      -15.49030
S          4.41360       -1.76310      -16.19390
C          4.42800       -1.44190      -17.99170
C          5.83290       -1.25020      -18.52970
C          5.46230       -0.28780      -14.18300
F          5.49970       -1.46820      -13.53340
C          5.91570        0.83650      -13.53070
C          7.31760        4.11540      -14.12600
C          7.84410        5.27440      -13.50730
C          7.42000        5.63800      -12.22120
C          7.90720        6.84930      -11.54970
C          7.87180        8.09030      -12.18470
C          8.30560        9.22390      -11.53380
C          8.78510        9.17690      -10.22320
S          9.26110       10.71570       -9.50530
C         10.48000       10.27600       -8.20240
C         11.29280       11.51020       -7.86390
C          8.79400        7.93500       -9.59580
C          8.37800        6.78910      -10.24280
F          9.20710        7.80020       -8.31410
C          6.49710        4.79990      -11.61230
S          5.79350        5.05870      -10.03880
C          8.82790        5.90700      -14.32500
C          9.02520        5.27040      -15.49650
S          8.03760        3.86340      -15.69670
H         -5.79250       -6.78480       19.29830
H         -6.22460       -4.09480       19.75620
H         -7.61430       -1.02440       18.66110
H         -5.86610       -0.83350       18.73620
H         -6.70220       -1.75800       19.98870
H         -6.81900       -1.71110       16.26060
H         -6.52090       -3.64250       14.81520
H         -6.48900       -9.11590       15.30920
H         -5.80760      -12.16890       13.84830
H         -7.50640      -11.88400       13.49060
H         -6.84970      -11.42560       15.06840
H         -6.03290      -10.88520       11.46080
H         -5.51080       -8.71280       10.46320
H         -4.84850       -3.70370       11.26020
H         -2.30840       -0.93790        8.93690
H         -2.33230        0.93750       10.52710
H         -4.79110        2.03620       14.65290
H         -6.01010        1.09620       13.77270
H         -4.69590       -0.34550       15.37770
H         -3.20890        0.09110       14.52660
H         -4.44970       -0.86500       13.71130
H         -6.25930       -2.00400       10.19980
H         -6.21720       -7.01950        6.56350
H         -6.19940       -8.88830        4.96560
H         -3.57000      -10.19500        0.96270
H         -2.36250       -9.29630        1.90020
H         -5.00630       -8.13460        0.85890
H         -3.74760       -7.22190        1.69960
H         -3.43380       -7.88020        0.09270
H         -2.23200       -6.01420        5.36150
H         -3.58280       -4.29520        4.28030
H         -2.59990        0.39690        4.10180
H         -0.40210        1.41210        3.83340
H         -0.32050        3.53940        5.06680
H         -2.69990        7.86300        4.97410
H         -2.89060        7.31410        3.29900
H         -4.07170        5.25550        4.11940
H         -3.84320        5.78890        5.78790
H         -4.89290        6.70640        4.69860
H         -2.52240        3.37680        0.67200
H         -3.80990       -3.17560       -0.28920
H         -3.81770       -5.45450       -1.20290
H         -0.44170       -8.91350       -2.31510
H          0.47560       -7.41730       -2.56520
H          0.94210       -8.38910       -0.29890
H          0.13480       -6.82910       -0.13800
H         -0.78220       -8.31990        0.08830
H          0.35190       -2.84560       -1.24760
H         -0.62520       -1.02260       -2.63050
H          0.17240       -0.14710       -4.71940
H          0.59760        0.49780       -9.16820
H          0.05710       -1.68930      -10.05540
H          0.15720       -3.57490      -11.06180
H         -0.35230       -5.25800      -10.87530
H         -2.33340       -3.77600      -11.31180
H         -2.43160       -4.56640       -9.73390
H         -1.97060       -2.86850       -9.83840
H          2.09060       -1.30800       -5.58160
H          2.15970        6.06050       -6.93930
H          2.97830        8.25370       -6.17110
H          6.57500        9.79900       -3.26150
H          6.28460        8.13780       -2.71420
H          8.01640        8.20120       -4.54040
H          6.84700        8.98290       -5.61240
H          6.58170        7.32260       -5.07460
H          3.85870        4.24450       -3.45120
H          4.21400        4.87180       -7.77750
H          4.48490        2.09720      -11.68350
H          5.35180        3.07230      -15.99530
H          4.54940        1.07960      -17.12290
H          3.78110       -0.59120      -18.20280
H          3.96960       -2.33740      -18.41140
H          5.79940       -1.10750      -19.60810
H          6.44000       -2.12610      -18.31320
H          6.30960       -0.38210      -18.07880
H          6.31030        0.74050      -12.53130
H          7.48320        8.16550      -13.18880
H          8.27560       10.18240      -12.02870
H          9.93750        9.91170       -7.33140
H         11.11280        9.48530       -8.60220
H         10.64600       12.30460       -7.49830
H         12.01980       11.26890       -7.09140
H         11.82180       11.87320       -8.74210
H          8.43100        5.85250       -9.71030
H          9.36660        6.78740      -14.02490
H          9.70280        5.53420      -16.28490
