122

C          1.89240        5.24440        4.91540
S          1.01140        4.34720        3.76130
C          2.40760        4.11210        2.75910
C          3.51670        4.75060        3.31070
C          3.21490        5.38970        4.56020
C          4.23170        6.08670        5.25710
C          5.48240        6.18280        4.72350
C          6.58750        6.90720        5.42890
C          5.75360        5.59830        3.45640
C          4.81060        4.90490        2.76250
C          2.30110        3.35850        1.55620
S          0.89900        3.52430        0.56170
C          1.46920        2.38240       -0.60690
C          2.70890        1.87070       -0.21740
C          3.18050        2.41870        1.01590
C          4.36930        1.91930        1.58960
C          5.10470        0.97220        0.93510
C          6.36300        0.41140        1.52310
C          4.67560        0.50450       -0.33200
C          3.51140        0.92770       -0.89630
C          0.61730        1.88140       -1.63890
S          0.60470        0.14090       -1.84810
C         -0.73410        0.20200       -2.96250
C         -1.10950        1.50870       -3.16640
C         -0.34100        2.45380       -2.43990
C         -0.66600        3.87460       -2.76580
S          0.37510        5.14380       -1.94310
C         -2.15520        4.12850       -2.50680
C         -3.04300        3.01940       -3.10560
C         -2.25510        2.02590       -3.97210
C         -1.26570       -0.98220       -3.57300
C         -0.92590       -2.24480       -3.27180
C         -0.02770       -2.58260       -2.17420
S         -0.67830       -2.55080       -0.55830
C          0.88240       -2.87450        0.15190
C          1.82300       -3.03680       -0.83580
C          1.30460       -2.87320       -2.14640
C          2.28280       -3.00120       -3.26470
S          1.52200       -3.02690       -4.93790
C          3.07360       -4.30060       -3.08580
C          3.67340       -4.45300       -1.67410
C          3.28170       -3.32000       -0.71360
C          1.08980       -2.97140        1.56720
C          0.19720       -2.77160        2.54700
C         -1.18920       -2.38110        2.35190
S         -2.45010       -3.51960        2.73620
C         -3.67240       -2.41560        2.17260
C         -3.12570       -1.23010        1.78000
C         -1.70790       -1.20060        1.89530
C         -0.91060        0.00760        1.52200
S          0.41270        0.38700        2.74220
C         -1.80360        1.22490        1.31430
C         -3.00140        0.85210        0.44830
C         -3.91710       -0.08520        1.22880
C         -5.09110       -2.75300        2.21570
C         -5.77020       -3.44780        1.29380
C         -5.26590       -4.03900        0.08870
S         -3.57320       -4.19750       -0.24960
C         -3.89080       -5.00490       -1.75330
C         -5.24470       -5.12670       -1.97780
C         -6.02300       -4.57540       -0.93800
C         -7.51390       -4.58650       -0.96820
S         -8.10810       -5.88090        0.23300
C         -8.03830       -4.88250       -2.36770
C         -7.32180       -6.09320       -2.95230
C         -5.85190       -5.76220       -3.19180
C         -2.82000       -5.46630       -2.59550
C         -1.54520       -5.55320       -2.22470
H          1.39910        5.62160        5.78860
H          3.99240        6.54430        6.20610
H          6.98640        7.69970        4.79670
H          6.23550        7.34610        6.35920
H          7.40350        6.22070        5.65500
H          6.74260        5.72420        3.03950
H          5.02960        4.48860        1.79120
H          4.67640        2.28070        2.55910
H          6.61350        0.91240        2.45460
H          7.19340        0.52740        0.82730
H          6.24300       -0.65350        1.72300
H          5.29750       -0.21320       -0.84920
H          3.19690        0.55480       -1.85950
H         -0.45680        4.01130       -3.83390
H         -0.09920        6.14620       -2.68510
H         -2.42230        5.09920       -2.92990
H         -2.30650        4.18730       -1.42740
H         -3.83900        3.46360       -3.70460
H         -3.51300        2.45550       -2.29830
H         -1.88340        2.53060       -4.86980
H         -2.91280        1.21750       -4.29060
H         -1.98260       -0.81020       -4.36460
H         -1.36910       -3.06760       -3.81560
H          2.96510       -2.14460       -3.25580
H          1.24840       -1.72690       -4.98810
H          3.85930       -4.33690       -3.84200
H          2.39080       -5.12860       -3.28790
H          3.33290       -5.39640       -1.24460
H          4.76170       -4.49640       -1.73570
H          3.55710       -3.59270        0.30470
H          3.83190       -2.40980       -0.97280
H          2.09600       -3.24960        1.85140
H          0.49840       -2.95580        3.57040
H         -0.33520       -0.19230        0.61260
H         -0.40340        0.60800        3.77130
H         -2.15710        1.59160        2.28190
H         -1.22410        2.02220        0.84820
H         -2.65350        0.35630       -0.46120
H         -3.54820        1.75310        0.16280
H         -4.38660        0.46450        2.05220
H         -4.71880       -0.46750        0.59230
H         -5.63290       -2.36770        3.07220
H         -6.83000       -3.59500        1.45520
H         -7.91620       -3.64090       -0.59460
H         -9.40340       -5.59930        0.09140
H         -9.11600       -5.05580       -2.33070
H         -7.85800       -4.00650       -2.99740
H         -7.40070       -6.92450       -2.24840
H         -7.79160       -6.39570       -3.88950
H         -5.76570       -5.06840       -4.03600
H         -5.30410       -6.66970       -3.45320
H         -3.11510       -5.76610       -3.59320
H         -1.22910       -5.27910       -1.23230
H         -0.78270       -5.89990       -2.90010
