
  xtb     03032203103D
 energy: -205.024155606263 gnorm: 0.000377155871 xtb: 6.4.1 (unknown)
 78 84  0     0  0            999 V2000
    4.2920    0.2184    6.9245 C   0  0  0  0  0  0  0  0  0  0  0  0
    3.0831    0.7278    6.8736 O   0  0  0  0  0  0  0  0  0  0  0  0
    2.5248    0.3736    5.6933 C   0  0  0  0  0  0  0  0  0  0  0  0
    3.4111   -0.3908    4.9658 C   0  0  0  0  0  0  0  0  0  0  0  0
    4.5756   -0.4981    5.7710 C   0  0  0  0  0  0  0  0  0  0  0  0
    5.8258   -1.1898    5.5181 C   0  0  0  0  0  0  0  0  0  0  0  0
    6.7873   -1.1992    6.2374 O   0  0  0  0  0  0  0  0  0  0  0  0
    5.8445   -1.9806    4.1755 C   0  0  0  0  0  0  0  0  0  0  0  0
    5.6542   -1.1672    3.1214 F   0  0  0  0  0  0  0  0  0  0  0  0
    4.8559   -2.8904    4.1358 F   0  0  0  0  0  0  0  0  0  0  0  0
    6.9878   -2.6234    3.9804 F   0  0  0  0  0  0  0  0  0  0  0  0
    1.2032    0.7954    5.3412 C   0  0  0  0  0  0  0  0  0  0  0  0
    0.7606    0.4690    4.1246 O   0  0  0  0  0  0  0  0  0  0  0  0
   -0.4942    0.9820    3.9748 C   0  0  0  0  0  0  0  0  0  0  0  0
   -0.8658    1.6472    5.1193 C   0  0  0  0  0  0  0  0  0  0  0  0
    0.2238    1.5345    6.0201 C   0  0  0  0  0  0  0  0  0  0  0  0
    0.2950    2.0547    7.3728 C   0  0  0  0  0  0  0  0  0  0  0  0
    1.1864    1.9058    8.1657 O   0  0  0  0  0  0  0  0  0  0  0  0
   -0.9592    2.8849    7.7907 C   0  0  0  0  0  0  0  0  0  0  0  0
   -1.1599    3.9261    6.9690 F   0  0  0  0  0  0  0  0  0  0  0  0
   -0.8259    3.3694    9.0216 F   0  0  0  0  0  0  0  0  0  0  0  0
   -2.0750    2.1408    7.7707 F   0  0  0  0  0  0  0  0  0  0  0  0
   -1.1393    0.7533    2.7221 C   0  0  0  0  0  0  0  0  0  0  0  0
   -0.4702    0.0172    1.8223 O   0  0  0  0  0  0  0  0  0  0  0  0
   -1.2147   -0.0698    0.6925 C   0  0  0  0  0  0  0  0  0  0  0  0
   -2.3921    0.6250    0.8608 C   0  0  0  0  0  0  0  0  0  0  0  0
   -2.3658    1.1627    2.1725 C   0  0  0  0  0  0  0  0  0  0  0  0
   -3.3966    1.9571    2.7996 C   0  0  0  0  0  0  0  0  0  0  0  0
   -3.3998    2.3998    3.9206 O   0  0  0  0  0  0  0  0  0  0  0  0
   -4.6233    2.2409    1.8802 C   0  0  0  0  0  0  0  0  0  0  0  0
   -5.2256    1.1046    1.4911 F   0  0  0  0  0  0  0  0  0  0  0  0
   -5.5347    2.9796    2.5020 F   0  0  0  0  0  0  0  0  0  0  0  0
   -4.2674    2.8951    0.7639 F   0  0  0  0  0  0  0  0  0  0  0  0
   -0.7444   -0.7950   -0.4377 C   0  0  0  0  0  0  0  0  0  0  0  0
   -1.6541   -0.7611   -1.9011 S   0  0  0  0  0  0  0  0  0  0  0  0
   -0.5454   -1.8233   -2.6902 C   0  0  0  0  0  0  0  0  0  0  0  0
    0.5353   -2.1555   -1.8611 C   0  0  0  0  0  0  0  0  0  0  0  0
    0.4143   -1.5790   -0.5603 C   0  0  0  0  0  0  0  0  0  0  0  0
    1.3967   -1.8424    0.4124 C   0  0  0  0  0  0  0  0  0  0  0  0
    2.4840   -2.6164    0.0979 C   0  0  0  0  0  0  0  0  0  0  0  0
    3.5401   -2.9132    1.1122 C   0  0  0  0  0  0  0  0  0  0  0  0
    2.6334   -3.1120   -1.2184 C   0  0  0  0  0  0  0  0  0  0  0  0
    1.6902   -2.8942   -2.1797 C   0  0  0  0  0  0  0  0  0  0  0  0
   -0.8081   -2.1912   -4.0342 C   0  0  0  0  0  0  0  0  0  0  0  0
   -1.5234   -1.3310   -4.7707 O   0  0  0  0  0  0  0  0  0  0  0  0
   -1.5900   -1.7950   -6.0367 C   0  0  0  0  0  0  0  0  0  0  0  0
   -0.8890   -2.9755   -6.1384 C   0  0  0  0  0  0  0  0  0  0  0  0
   -0.4058   -3.2682   -4.8397 C   0  0  0  0  0  0  0  0  0  0  0  0
    0.2478   -4.5286   -4.5325 C   0  0  0  0  0  0  0  0  0  0  0  0
    0.9987   -5.1171   -5.2674 O   0  0  0  0  0  0  0  0  0  0  0  0
   -0.2169   -5.2667   -3.2330 C   0  0  0  0  0  0  0  0  0  0  0  0
   -1.0628   -4.5682   -2.4617 F   0  0  0  0  0  0  0  0  0  0  0  0
    0.8047   -5.6413   -2.4587 F   0  0  0  0  0  0  0  0  0  0  0  0
   -0.8708   -6.3792   -3.5943 F   0  0  0  0  0  0  0  0  0  0  0  0
   -2.3082   -1.0784   -7.0398 C   0  0  0  0  0  0  0  0  0  0  0  0
   -2.2696   -1.5553   -8.2893 O   0  0  0  0  0  0  0  0  0  0  0  0
   -2.9916   -0.7301   -9.0719 C   0  0  0  0  0  0  0  0  0  0  0  0
   -3.5090    0.2943   -8.3526 C   0  0  0  0  0  0  0  0  0  0  0  0
   -3.0776    0.0929   -7.0044 C   0  0  0  0  0  0  0  0  0  0  0  0
   -3.3869    0.9099   -5.8564 C   0  0  0  0  0  0  0  0  0  0  0  0
   -3.0866    0.7181   -4.7041 O   0  0  0  0  0  0  0  0  0  0  0  0
   -4.2196    2.1835   -6.2048 C   0  0  0  0  0  0  0  0  0  0  0  0
   -5.4168    1.8732   -6.7305 F   0  0  0  0  0  0  0  0  0  0  0  0
   -3.5936    2.9619   -7.1053 F   0  0  0  0  0  0  0  0  0  0  0  0
   -4.4417    2.9289   -5.1270 F   0  0  0  0  0  0  0  0  0  0  0  0
    4.8918    0.3949    7.7970 H   0  0  0  0  0  0  0  0  0  0  0  0
    3.2385   -0.8014    3.9930 H   0  0  0  0  0  0  0  0  0  0  0  0
   -1.8013    2.1424    5.2764 H   0  0  0  0  0  0  0  0  0  0  0  0
   -3.1650    0.7241    0.1275 H   0  0  0  0  0  0  0  0  0  0  0  0
    1.2868   -1.4285    1.4016 H   0  0  0  0  0  0  0  0  0  0  0  0
    3.1430   -2.8363    2.1206 H   0  0  0  0  0  0  0  0  0  0  0  0
    3.9414   -3.9134    0.9693 H   0  0  0  0  0  0  0  0  0  0  0  0
    4.3627   -2.2049    1.0093 H   0  0  0  0  0  0  0  0  0  0  0  0
    3.5180   -3.6815   -1.4587 H   0  0  0  0  0  0  0  0  0  0  0  0
    1.8298   -3.2701   -3.1821 H   0  0  0  0  0  0  0  0  0  0  0  0
   -0.7659   -3.5847   -7.0097 H   0  0  0  0  0  0  0  0  0  0  0  0
   -3.0586   -0.9798  -10.1119 H   0  0  0  0  0  0  0  0  0  0  0  0
   -4.1210    1.0880   -8.7259 H   0  0  0  0  0  0  0  0  0  0  0  0
  1  2  1  0  0  0  0
  2  3  1  0  0  0  0
  3  4  2  0  0  0  0
  4  5  1  0  0  0  0
  5  6  1  0  0  0  0
  6  7  2  0  0  0  0
  6  8  1  0  0  0  0
  8  9  1  0  0  0  0
  8 10  1  0  0  0  0
  8 11  1  0  0  0  0
  3 12  1  0  0  0  0
 12 13  1  0  0  0  0
 13 14  1  0  0  0  0
 14 15  2  0  0  0  0
 15 16  1  0  0  0  0
 16 17  1  0  0  0  0
 17 18  2  0  0  0  0
 17 19  1  0  0  0  0
 19 20  1  0  0  0  0
 19 21  1  0  0  0  0
 19 22  1  0  0  0  0
 14 23  1  0  0  0  0
 23 24  1  0  0  0  0
 24 25  1  0  0  0  0
 25 26  2  0  0  0  0
 26 27  1  0  0  0  0
 27 28  1  0  0  0  0
 28 29  2  0  0  0  0
 28 30  1  0  0  0  0
 30 31  1  0  0  0  0
 30 32  1  0  0  0  0
 30 33  1  0  0  0  0
 25 34  1  0  0  0  0
 34 35  1  0  0  0  0
 35 36  1  0  0  0  0
 36 37  2  0  0  0  0
 37 38  1  0  0  0  0
 38 39  1  0  0  0  0
 39 40  2  0  0  0  0
 40 41  1  0  0  0  0
 40 42  1  0  0  0  0
 42 43  2  0  0  0  0
 36 44  1  0  0  0  0
 44 45  1  0  0  0  0
 45 46  1  0  0  0  0
 46 47  2  0  0  0  0
 47 48  1  0  0  0  0
 48 49  1  0  0  0  0
 49 50  2  0  0  0  0
 49 51  1  0  0  0  0
 51 52  1  0  0  0  0
 51 53  1  0  0  0  0
 51 54  1  0  0  0  0
 46 55  1  0  0  0  0
 55 56  1  0  0  0  0
 56 57  1  0  0  0  0
 57 58  2  0  0  0  0
 58 59  1  0  0  0  0
 59 60  1  0  0  0  0
 60 61  2  0  0  0  0
 60 62  1  0  0  0  0
 62 63  1  0  0  0  0
 62 64  1  0  0  0  0
 62 65  1  0  0  0  0
  5  1  2  0  0  0  0
 16 12  2  0  0  0  0
 27 23  2  0  0  0  0
 38 34  2  0  0  0  0
 48 44  2  0  0  0  0
 59 55  2  0  0  0  0
 43 37  1  0  0  0  0
  1 66  1  0  0  0  0
  4 67  1  0  0  0  0
 15 68  1  0  0  0  0
 26 69  1  0  0  0  0
 39 70  1  0  0  0  0
 41 71  1  0  0  0  0
 41 72  1  0  0  0  0
 41 73  1  0  0  0  0
 42 74  1  0  0  0  0
 43 75  1  0  0  0  0
 47 76  1  0  0  0  0
 57 77  1  0  0  0  0
 58 78  1  0  0  0  0
M  END
