234

C          3.99590        2.49100       14.88130
C          2.77690        2.28760       15.42070
C          1.82310        1.80360       14.47650
C          0.46220        1.52140       14.68110
C         -0.16190        1.64440       16.00420
C         -1.34010        2.36450       16.17260
C         -1.93510        2.48490       17.41360
C         -1.37040        1.88780       18.53440
S         -2.02640        1.94620       20.16920
C         -3.27560        3.27600       20.10380
C         -2.64870        4.65140       19.97430
C         -0.19780        1.15320       18.34740
F          0.36830        0.54350       19.40900
C          0.40580        1.02680       17.11710
C         -0.26100        1.11110       13.57230
C          0.31560        0.96860       12.28800
C          1.66880        1.27610       12.07560
C          2.23410        1.20040       10.72210
C          1.61740        1.88750        9.67710
C          2.09810        1.78710        8.38880
C          3.20230        0.99410        8.09610
S          3.75220        0.88210        6.41100
C          3.67920       -0.92690        6.14860
C          2.26170       -1.44850        6.27290
C          3.83370        0.34760        9.15370
C          3.36480        0.43920       10.44980
F          4.92930       -0.40720        8.93360
C          2.39560        1.66980       13.18740
S          4.08090        2.11990       13.19290
C         -0.60560        0.45980       11.34640
C         -1.85820        0.23140       11.84930
S         -1.94790        0.65080       13.55320
C         -2.94260       -0.28010       11.09060
S         -2.58230       -0.87020        9.50040
C         -4.24070       -1.24000        9.14900
C         -5.05790       -0.87800       10.22790
C         -4.31600       -0.36680       11.34240
C         -5.00030        0.02590       12.51050
C         -6.36550       -0.03390       12.56640
C         -7.11550        0.37060       13.79680
C         -7.09240       -0.45930       11.42850
C         -6.46730       -0.86680       10.28760
C         -4.51810       -1.76540        7.86300
S         -3.43070       -1.32850        6.58470
C         -4.30140       -2.23460        5.39650
C         -5.39170       -2.88940        5.97910
C         -5.50080       -2.64540        7.38680
C         -6.45920       -3.35310        8.13970
C         -7.33010       -4.21000        7.52330
C         -8.35710       -4.97320        8.30020
C         -7.24860       -4.40150        6.12350
C         -6.29920       -3.78030        5.36830
C         -3.80650       -2.21580        4.06370
C         -4.44170       -2.40680        2.86800
C         -3.60250       -2.22860        1.73910
C         -3.94760       -2.30920        0.37650
C         -5.32550       -2.57280       -0.05540
C         -6.39180       -1.82260        0.44070
C         -7.68000       -2.07330        0.02400
C         -7.96550       -3.07350       -0.90730
S         -9.65810       -3.25170       -1.37030
C         -9.81800       -4.99390       -1.93120
C        -11.28390       -5.37940       -1.89700
C         -6.88850       -3.79390       -1.41470
F         -7.06810       -4.75710       -2.34760
C         -5.59390       -3.56110       -0.99550
C         -2.92740       -2.09520       -0.53950
C         -1.60230       -1.78680       -0.14920
C         -1.25410       -1.69630        1.20800
C          0.12810       -1.37610        1.58610
C          0.76920       -0.26460        1.04430
C          2.10430       -0.01730        1.29190
C          2.85380       -0.88390        2.08130
S          4.57740       -0.70390        2.38340
C          5.11800        0.35910        0.99150
C          6.62690        0.28580        0.86550
C          2.18380       -1.96190        2.66300
C          0.84870       -2.21230        2.43520
F          2.87200       -2.81540        3.44890
C         -2.26770       -1.92920        2.11790
S         -2.10340       -1.82950        3.84590
C         -0.75410       -1.58930       -1.26060
C         -1.38470       -1.69460       -2.46390
S         -3.08260       -2.09330       -2.28420
C         -0.75560       -1.46310       -3.72230
C         -1.19780       -1.65230       -4.99620
C         -0.25140       -1.27060       -5.98620
C         -0.37570       -1.31910       -7.38530
C         -1.62410       -1.73120       -8.03790
C         -2.84580       -1.18230       -7.64890
C         -4.01080       -1.52930       -8.29850
C         -4.00840       -2.43750       -9.35460
S         -5.56280       -2.83440      -10.10260
C         -5.18940       -2.78630      -11.89510
C         -4.62820       -1.44390      -12.31910
C         -2.78760       -3.00000       -9.71260
F         -2.71480       -3.91970      -10.70140
C         -1.61120       -2.65120       -9.08170
C          0.72880       -0.91370       -8.12230
C          1.92250       -0.41660       -7.54070
C          2.04160       -0.34960       -6.14470
C          3.21670        0.20760       -5.46300
C          3.72880        1.45540       -5.80570
C          4.76840        2.02400       -5.09330
C          5.32700        1.36870       -4.00210
S          6.63040        1.97530       -2.98320
C          6.79750        3.73060       -3.45420
C          5.64470        4.57560       -2.94590
C          4.82240        0.10570       -3.68780
C          3.79690       -0.47650       -4.39510
F          5.34870       -0.56380       -2.64150
C          0.95490       -0.80110       -5.41030
S          0.86870       -0.79980       -3.67380
C          2.88130       -0.05190       -8.52030
C          2.45140       -0.23700       -9.79880
S          0.82240       -0.88420       -9.86450
C          3.15400        0.00730      -11.01530
C          2.76520       -0.34930      -12.27030
C          3.69170        0.01470      -13.28010
C          3.58250       -0.20080      -14.66290
C          2.46560       -0.98040      -15.20660
C          2.14850       -2.22030      -14.65610
C          1.07770       -2.95700      -15.11970
C          0.27310       -2.47400      -16.14590
S         -1.13620       -3.30480      -16.79870
C         -1.57650       -4.50300      -15.49040
C         -2.07000       -3.82220      -14.22860
C          0.62520       -1.24810      -16.71380
F         -0.11840       -0.75840      -17.72540
C          1.69700       -0.50730      -16.26720
C          4.59010        0.33170      -15.45430
C          5.69640        1.03960      -14.92450
C          5.81270        1.23960      -13.54030
C          6.92930        1.99450      -12.95840
C          7.26130        3.26320      -13.43270
C          8.28580        3.98150      -12.85680
C          9.03110        3.46510      -11.79610
S         10.34140        4.47250      -11.17840
C         10.48450        4.00020       -9.40810
C         11.16100        5.13020       -8.65710
C          8.70430        2.18790      -11.35050
C          7.66530        1.46710      -11.90360
F          9.40560        1.59610      -10.35680
C          4.80620        0.70700      -12.74840
S          4.69810        0.83910      -11.00980
C          6.61470        1.41720      -15.94940
C          6.21930        1.02760      -17.17810
S          4.71280        0.17740      -17.18750
H          4.88150        2.84590       15.37130
H          2.54230        2.48560       16.45080
H         -1.79230        2.85350       15.32330
H         -2.85000        3.04840       17.49680
H         -3.97640        3.05870       19.29880
H         -3.79990        3.17780       21.05440
H         -1.97880        4.83740       20.81040
H         -2.07720        4.73630       19.05240
H         -3.42530        5.41400       19.97380
H          1.30110        0.43160       17.02800
H          0.75710        2.50650        9.88320
H          1.61530        2.31310        7.58000
H          4.35450       -1.40720        6.85350
H          4.06460       -1.06490        5.13930
H          1.60000       -0.92720        5.58380
H          2.24470       -2.50930        6.03440
H          1.88260       -1.31250        7.28510
H          3.87860       -0.09670       11.23260
H         -0.34800        0.25610       10.32220
H         -4.43530        0.38300       13.35750
H         -7.71200       -0.46330       14.16560
H         -7.79630        1.19130       13.57300
H         -6.43320        0.68520       14.58200
H         -8.17170       -0.44690       11.47400
H         -7.03900       -1.14990        9.41810
H         -6.47410       -3.24040        9.21250
H         -8.30320       -4.73370        9.35900
H         -9.35700       -4.73620        7.93780
H         -8.20580       -6.04490        8.17630
H         -7.94310       -5.08540        5.65760
H         -6.21820       -3.98450        4.31300
H         -5.48830       -2.63280        2.78600
H         -6.20270       -1.02550        1.14330
H         -8.50200       -1.49100        0.41110
H         -9.41510       -5.07020       -2.93980
H         -9.23250       -5.60980       -1.25040
H        -11.86260       -4.73680       -2.55670
H        -11.39900       -6.41020       -2.22520
H        -11.68140       -5.28560       -0.88890
H         -4.80310       -4.16610       -1.41090
H          0.21030        0.42320        0.42760
H          2.56580        0.85450        0.85770
H          4.63950       -0.01850        0.08870
H          4.79420        1.37990        1.19680
H          6.94800        0.87710        0.01050
H          6.94340       -0.74250        0.71010
H          7.10790        0.66700        1.76350
H          0.39130       -3.07930        2.88550
H          0.29720       -1.38140       -1.17420
H         -2.16230       -2.07210       -5.21930
H         -2.87430       -0.45090       -6.85590
H         -4.95180       -1.09250       -8.00260
H         -4.51740       -3.60610      -12.13870
H         -6.15910       -2.97160      -12.35690
H         -5.29150       -0.63910      -12.00930
H         -3.64830       -1.27470      -11.87590
H         -4.52630       -1.41140      -13.40190
H         -0.69580       -3.12850       -9.39430
H          3.28820        2.00680       -6.62260
H          5.13280        2.99270       -5.39480
H          7.73450        4.03210       -2.98590
H          6.91640        3.79050       -4.53520
H          5.58450        4.51350       -1.86190
H          4.69760        4.23800       -3.36140
H          5.79680        5.61610       -3.22640
H          3.46300       -1.46210       -4.11290
H          3.86540        0.31290       -8.28570
H          1.83180       -0.84560      -12.46720
H          2.76370       -2.62410      -13.86620
H          0.87580       -3.91770      -14.67470
H         -2.36910       -5.09530      -15.94750
H         -0.72230       -5.15360      -15.30760
H         -2.33280       -4.56820      -13.48140
H         -2.94910       -3.22140      -14.44840
H         -1.30650       -3.17080      -13.80850
H          1.90560        0.44460      -16.72900
H          6.68840        3.69890      -14.23700
H          8.53080        4.96860      -13.21720
H          9.47500        3.82830       -9.03780
H         11.06460        3.08130       -9.34110
H         10.58160        6.04690       -8.74070
H         11.25420        4.86760       -7.60550
H         12.15470        5.31340       -9.05940
H          7.46250        0.47930      -11.52020
H          7.53420        1.93870      -15.75540
H          6.72310        1.18370      -18.11200
