
  xtb     03032214063D
 energy: -203.924506637865 gnorm: 0.000436467836 xtb: 6.4.1 (unknown)
126137  0     0  0            999 V2000
   -3.8520    7.0062    5.5990 C   0  0  0  0  0  0  0  0  0  0  0  0
   -4.7520    5.6308    5.1168 S   0  0  0  0  0  0  0  0  0  0  0  0
   -3.2901    4.7678    4.6837 C   0  0  0  0  0  0  0  0  0  0  0  0
   -2.1808    5.5610    4.8948 C   0  0  0  0  0  0  0  0  0  0  0  0
   -2.5117    6.8266    5.4399 C   0  0  0  0  0  0  0  0  0  0  0  0
   -1.4889    7.8705    5.7995 C   0  0  0  0  0  0  0  0  0  0  0  0
   -1.6164    8.9738    4.7594 C   0  0  0  0  0  0  0  0  0  0  0  0
   -0.9789    9.0794    3.7470 O   0  0  0  0  0  0  0  0  0  0  0  0
   -2.5828    9.8308    5.1146 O   0  0  0  0  0  0  0  0  0  0  0  0
   -2.8623   10.8771    4.1938 C   0  0  0  0  0  0  0  0  0  0  0  0
   -0.0818    7.2734    5.8469 C   0  0  0  0  0  0  0  0  0  0  0  0
    0.1653    6.3692    4.6450 C   0  0  0  0  0  0  0  0  0  0  0  0
   -0.7571    5.1539    4.6768 C   0  0  0  0  0  0  0  0  0  0  0  0
   -3.3827    3.4407    4.1610 C   0  0  0  0  0  0  0  0  0  0  0  0
   -2.2350    2.8542    2.9982 S   0  0  0  0  0  0  0  0  0  0  0  0
   -3.0577    1.3426    2.7938 C   0  0  0  0  0  0  0  0  0  0  0  0
   -4.1561    1.2676    3.6521 C   0  0  0  0  0  0  0  0  0  0  0  0
   -4.3551    2.4664    4.4100 C   0  0  0  0  0  0  0  0  0  0  0  0
   -5.4172    2.5171    5.3401 C   0  0  0  0  0  0  0  0  0  0  0  0
   -6.2319    1.4364    5.5260 C   0  0  0  0  0  0  0  0  0  0  0  0
   -7.3653    1.4727    6.5039 C   0  0  0  0  0  0  0  0  0  0  0  0
   -5.9898    0.2405    4.8056 C   0  0  0  0  0  0  0  0  0  0  0  0
   -4.9776    0.1458    3.9006 C   0  0  0  0  0  0  0  0  0  0  0  0
   -2.5612    0.3874    1.8681 C   0  0  0  0  0  0  0  0  0  0  0  0
   -0.8480    0.2180    1.6418 S   0  0  0  0  0  0  0  0  0  0  0  0
   -1.0323   -1.1002    0.5398 C   0  0  0  0  0  0  0  0  0  0  0  0
   -2.3780   -1.3524    0.2950 C   0  0  0  0  0  0  0  0  0  0  0  0
   -3.2533   -0.5013    1.0408 C   0  0  0  0  0  0  0  0  0  0  0  0
   -4.6450   -0.5749    0.8153 C   0  0  0  0  0  0  0  0  0  0  0  0
   -5.1541   -1.5056   -0.0459 C   0  0  0  0  0  0  0  0  0  0  0  0
   -6.6252   -1.6049   -0.3081 C   0  0  0  0  0  0  0  0  0  0  0  0
   -4.2804   -2.4046   -0.7099 C   0  0  0  0  0  0  0  0  0  0  0  0
   -2.9304   -2.3328   -0.5595 C   0  0  0  0  0  0  0  0  0  0  0  0
    0.1141   -1.7008   -0.0700 C   0  0  0  0  0  0  0  0  0  0  0  0
    0.1423   -1.8914   -1.8116 S   0  0  0  0  0  0  0  0  0  0  0  0
    1.7957   -2.4578   -1.7829 C   0  0  0  0  0  0  0  0  0  0  0  0
    2.2663   -2.4957   -0.5020 C   0  0  0  0  0  0  0  0  0  0  0  0
    1.3112   -2.0907    0.4674 C   0  0  0  0  0  0  0  0  0  0  0  0
    1.7739   -2.2136    1.8909 C   0  0  0  0  0  0  0  0  0  0  0  0
    0.7077   -1.9654    2.9382 C   0  0  0  0  0  0  0  0  0  0  0  0
   -0.2933   -2.6275    3.0404 O   0  0  0  0  0  0  0  0  0  0  0  0
    1.0288   -0.9774    3.7782 O   0  0  0  0  0  0  0  0  0  0  0  0
    0.1016   -0.7052    4.8188 C   0  0  0  0  0  0  0  0  0  0  0  0
    3.0536   -1.3814    2.0691 C   0  0  0  0  0  0  0  0  0  0  0  0
    4.0405   -1.5773    0.9006 C   0  0  0  0  0  0  0  0  0  0  0  0
    3.6572   -2.7414   -0.0255 C   0  0  0  0  0  0  0  0  0  0  0  0
    2.4238   -2.8107   -3.0323 C   0  0  0  0  0  0  0  0  0  0  0  0
    2.4395   -1.6494   -4.3279 S   0  0  0  0  0  0  0  0  0  0  0  0
    3.1197   -2.8213   -5.4178 C   0  0  0  0  0  0  0  0  0  0  0  0
    3.3346   -4.0220   -4.7982 C   0  0  0  0  0  0  0  0  0  0  0  0
    2.9380   -4.0164   -3.4379 C   0  0  0  0  0  0  0  0  0  0  0  0
    3.0154   -5.2494   -2.5913 C   0  0  0  0  0  0  0  0  0  0  0  0
    4.3119   -5.3054   -1.8012 C   0  0  0  0  0  0  0  0  0  0  0  0
    5.3655   -4.8302   -2.1287 O   0  0  0  0  0  0  0  0  0  0  0  0
    4.1390   -6.0106   -0.6749 O   0  0  0  0  0  0  0  0  0  0  0  0
    5.2973   -6.2170    0.1232 C   0  0  0  0  0  0  0  0  0  0  0  0
    2.9759   -6.4959   -3.4956 C   0  0  0  0  0  0  0  0  0  0  0  0
    4.0562   -6.4044   -4.5692 C   0  0  0  0  0  0  0  0  0  0  0  0
    3.7601   -5.2554   -5.5286 C   0  0  0  0  0  0  0  0  0  0  0  0
    3.3429   -2.4935   -6.8068 C   0  0  0  0  0  0  0  0  0  0  0  0
    4.9367   -2.4488   -7.4995 S   0  0  0  0  0  0  0  0  0  0  0  0
    4.2882   -2.0197   -9.0335 C   0  0  0  0  0  0  0  0  0  0  0  0
    2.9328   -1.9207   -9.0223 C   0  0  0  0  0  0  0  0  0  0  0  0
    2.3897   -2.1906   -7.7391 C   0  0  0  0  0  0  0  0  0  0  0  0
    0.9172   -2.1747   -7.4483 C   0  0  0  0  0  0  0  0  0  0  0  0
    0.5386   -3.3820   -6.6081 C   0  0  0  0  0  0  0  0  0  0  0  0
    0.8182   -4.5244   -6.8667 O   0  0  0  0  0  0  0  0  0  0  0  0
   -0.1932   -3.0194   -5.5528 O   0  0  0  0  0  0  0  0  0  0  0  0
   -0.6261   -4.0596   -4.6882 C   0  0  0  0  0  0  0  0  0  0  0  0
    0.1198   -2.2076   -8.7597 C   0  0  0  0  0  0  0  0  0  0  0  0
    0.6755   -1.1816   -9.7423 C   0  0  0  0  0  0  0  0  0  0  0  0
    2.0707   -1.5981  -10.2021 C   0  0  0  0  0  0  0  0  0  0  0  0
   -4.3607    7.8676    5.9832 H   0  0  0  0  0  0  0  0  0  0  0  0
   -1.7565    8.3141    6.7639 H   0  0  0  0  0  0  0  0  0  0  0  0
   -1.9535   11.4410    3.9748 H   0  0  0  0  0  0  0  0  0  0  0  0
   -3.2539   10.4650    3.2616 H   0  0  0  0  0  0  0  0  0  0  0  0
   -3.6031   11.5134    4.6709 H   0  0  0  0  0  0  0  0  0  0  0  0
    0.0252    6.6973    6.7693 H   0  0  0  0  0  0  0  0  0  0  0  0
    0.6510    8.0819    5.8609 H   0  0  0  0  0  0  0  0  0  0  0  0
   -0.0091    6.9408    3.7337 H   0  0  0  0  0  0  0  0  0  0  0  0
    1.2035    6.0335    4.6422 H   0  0  0  0  0  0  0  0  0  0  0  0
   -0.4565    4.4794    5.4868 H   0  0  0  0  0  0  0  0  0  0  0  0
   -0.6571    4.6054    3.7402 H   0  0  0  0  0  0  0  0  0  0  0  0
   -5.5705    3.4118    5.9221 H   0  0  0  0  0  0  0  0  0  0  0  0
   -7.4222    2.4385    6.9989 H   0  0  0  0  0  0  0  0  0  0  0  0
   -8.3093    1.2867    5.9923 H   0  0  0  0  0  0  0  0  0  0  0  0
   -7.2397    0.6977    7.2595 H   0  0  0  0  0  0  0  0  0  0  0  0
   -6.6186   -0.6157    5.0024 H   0  0  0  0  0  0  0  0  0  0  0  0
   -4.7743   -0.7824    3.3899 H   0  0  0  0  0  0  0  0  0  0  0  0
   -5.2973    0.1264    1.3131 H   0  0  0  0  0  0  0  0  0  0  0  0
   -6.8275   -1.5112   -1.3744 H   0  0  0  0  0  0  0  0  0  0  0  0
   -7.1686   -0.8266    0.2215 H   0  0  0  0  0  0  0  0  0  0  0  0
   -7.0010   -2.5751    0.0167 H   0  0  0  0  0  0  0  0  0  0  0  0
   -4.7122   -3.1497   -1.3625 H   0  0  0  0  0  0  0  0  0  0  0  0
   -2.2726   -3.0082   -1.0846 H   0  0  0  0  0  0  0  0  0  0  0  0
    2.0318   -3.2753    2.0242 H   0  0  0  0  0  0  0  0  0  0  0  0
    0.3733    0.2662    5.2238 H   0  0  0  0  0  0  0  0  0  0  0  0
    0.1678   -1.4737    5.5917 H   0  0  0  0  0  0  0  0  0  0  0  0
   -0.9173   -0.6871    4.4271 H   0  0  0  0  0  0  0  0  0  0  0  0
    3.5202   -1.6648    3.0133 H   0  0  0  0  0  0  0  0  0  0  0  0
    2.7763   -0.3300    2.1451 H   0  0  0  0  0  0  0  0  0  0  0  0
    4.0701   -0.6704    0.2943 H   0  0  0  0  0  0  0  0  0  0  0  0
    5.0464   -1.7441    1.2877 H   0  0  0  0  0  0  0  0  0  0  0  0
    3.7048   -3.6838    0.5270 H   0  0  0  0  0  0  0  0  0  0  0  0
    4.3515   -2.7958   -0.8640 H   0  0  0  0  0  0  0  0  0  0  0  0
    2.1919   -5.2775   -1.8704 H   0  0  0  0  0  0  0  0  0  0  0  0
    5.8324   -5.2758    0.2648 H   0  0  0  0  0  0  0  0  0  0  0  0
    4.9487   -6.6117    1.0743 H   0  0  0  0  0  0  0  0  0  0  0  0
    5.9659   -6.9314   -0.3611 H   0  0  0  0  0  0  0  0  0  0  0  0
    1.9946   -6.5559   -3.9718 H   0  0  0  0  0  0  0  0  0  0  0  0
    3.1139   -7.3893   -2.8835 H   0  0  0  0  0  0  0  0  0  0  0  0
    5.0267   -6.2413   -4.0980 H   0  0  0  0  0  0  0  0  0  0  0  0
    4.1042   -7.3406   -5.1277 H   0  0  0  0  0  0  0  0  0  0  0  0
    2.9401   -5.5305   -6.2023 H   0  0  0  0  0  0  0  0  0  0  0  0
    4.6339   -5.0433   -6.1473 H   0  0  0  0  0  0  0  0  0  0  0  0
    4.9546   -1.8694   -9.8595 H   0  0  0  0  0  0  0  0  0  0  0  0
    0.6575   -1.2764   -6.8773 H   0  0  0  0  0  0  0  0  0  0  0  0
   -1.2719   -3.5897   -3.9512 H   0  0  0  0  0  0  0  0  0  0  0  0
   -1.1669   -4.8216   -5.2531 H   0  0  0  0  0  0  0  0  0  0  0  0
    0.2336   -4.5225   -4.1995 H   0  0  0  0  0  0  0  0  0  0  0  0
   -0.9310   -2.0032   -8.5469 H   0  0  0  0  0  0  0  0  0  0  0  0
    0.1948   -3.2074   -9.1934 H   0  0  0  0  0  0  0  0  0  0  0  0
    0.0141   -1.0995  -10.6064 H   0  0  0  0  0  0  0  0  0  0  0  0
    0.7226   -0.2043   -9.2572 H   0  0  0  0  0  0  0  0  0  0  0  0
    1.9930   -2.4873  -10.8359 H   0  0  0  0  0  0  0  0  0  0  0  0
    2.5322   -0.8091  -10.7999 H   0  0  0  0  0  0  0  0  0  0  0  0
  1  2  1  0  0  0  0
  2  3  1  0  0  0  0
  3  4  2  0  0  0  0
  4  5  1  0  0  0  0
  5  6  1  0  0  0  0
  6  7  1  0  0  0  0
  7  8  2  0  0  0  0
  7  9  1  0  0  0  0
  9 10  1  0  0  0  0
  6 11  1  0  0  0  0
 11 12  1  0  0  0  0
 12 13  1  0  0  0  0
  3 14  1  0  0  0  0
 14 15  1  0  0  0  0
 15 16  1  0  0  0  0
 16 17  2  0  0  0  0
 17 18  1  0  0  0  0
 18 19  1  0  0  0  0
 19 20  2  0  0  0  0
 20 21  1  0  0  0  0
 20 22  1  0  0  0  0
 22 23  2  0  0  0  0
 16 24  1  0  0  0  0
 24 25  1  0  0  0  0
 25 26  1  0  0  0  0
 26 27  2  0  0  0  0
 27 28  1  0  0  0  0
 28 29  1  0  0  0  0
 29 30  2  0  0  0  0
 30 31  1  0  0  0  0
 30 32  1  0  0  0  0
 32 33  2  0  0  0  0
 26 34  1  0  0  0  0
 34 35  1  0  0  0  0
 35 36  1  0  0  0  0
 36 37  2  0  0  0  0
 37 38  1  0  0  0  0
 38 39  1  0  0  0  0
 39 40  1  0  0  0  0
 40 41  2  0  0  0  0
 40 42  1  0  0  0  0
 42 43  1  0  0  0  0
 39 44  1  0  0  0  0
 44 45  1  0  0  0  0
 45 46  1  0  0  0  0
 36 47  1  0  0  0  0
 47 48  1  0  0  0  0
 48 49  1  0  0  0  0
 49 50  2  0  0  0  0
 50 51  1  0  0  0  0
 51 52  1  0  0  0  0
 52 53  1  0  0  0  0
 53 54  2  0  0  0  0
 53 55  1  0  0  0  0
 55 56  1  0  0  0  0
 52 57  1  0  0  0  0
 57 58  1  0  0  0  0
 58 59  1  0  0  0  0
 49 60  1  0  0  0  0
 60 61  1  0  0  0  0
 61 62  1  0  0  0  0
 62 63  2  0  0  0  0
 63 64  1  0  0  0  0
 64 65  1  0  0  0  0
 65 66  1  0  0  0  0
 66 67  2  0  0  0  0
 66 68  1  0  0  0  0
 68 69  1  0  0  0  0
 65 70  1  0  0  0  0
 70 71  1  0  0  0  0
 71 72  1  0  0  0  0
  5  1  2  0  0  0  0
 18 14  2  0  0  0  0
 28 24  2  0  0  0  0
 38 34  2  0  0  0  0
 51 47  2  0  0  0  0
 64 60  2  0  0  0  0
 13  4  1  0  0  0  0
 23 17  1  0  0  0  0
 33 27  1  0  0  0  0
 46 37  1  0  0  0  0
 59 50  1  0  0  0  0
 72 63  1  0  0  0  0
  1 73  1  0  0  0  0
  6 74  1  0  0  0  0
 10 75  1  0  0  0  0
 10 76  1  0  0  0  0
 10 77  1  0  0  0  0
 11 78  1  0  0  0  0
 11 79  1  0  0  0  0
 12 80  1  0  0  0  0
 12 81  1  0  0  0  0
 13 82  1  0  0  0  0
 13 83  1  0  0  0  0
 19 84  1  0  0  0  0
 21 85  1  0  0  0  0
 21 86  1  0  0  0  0
 21 87  1  0  0  0  0
 22 88  1  0  0  0  0
 23 89  1  0  0  0  0
 29 90  1  0  0  0  0
 31 91  1  0  0  0  0
 31 92  1  0  0  0  0
 31 93  1  0  0  0  0
 32 94  1  0  0  0  0
 33 95  1  0  0  0  0
 39 96  1  0  0  0  0
 43 97  1  0  0  0  0
 43 98  1  0  0  0  0
 43 99  1  0  0  0  0
 44100  1  0  0  0  0
 44101  1  0  0  0  0
 45102  1  0  0  0  0
 45103  1  0  0  0  0
 46104  1  0  0  0  0
 46105  1  0  0  0  0
 52106  1  0  0  0  0
 56107  1  0  0  0  0
 56108  1  0  0  0  0
 56109  1  0  0  0  0
 57110  1  0  0  0  0
 57111  1  0  0  0  0
 58112  1  0  0  0  0
 58113  1  0  0  0  0
 59114  1  0  0  0  0
 59115  1  0  0  0  0
 62116  1  0  0  0  0
 65117  1  0  0  0  0
 69118  1  0  0  0  0
 69119  1  0  0  0  0
 69120  1  0  0  0  0
 70121  1  0  0  0  0
 70122  1  0  0  0  0
 71123  1  0  0  0  0
 71124  1  0  0  0  0
 72125  1  0  0  0  0
 72126  1  0  0  0  0
M  END
