268

C        -20.08670        1.77000        3.37560
C        -19.31670        2.83600        3.07840
C        -18.02720        2.46960        2.59080
C        -16.99460        3.30930        2.15330
C        -17.06340        4.77520        2.21690
C        -17.35860        5.43590        3.40490
C        -17.31780        6.81530        3.48390
C        -16.97660        7.58290        2.37620
S        -16.86660        9.34250        2.34330
C        -16.70450        9.80810        4.10070
C        -15.37870        9.36710        4.69050
C        -16.71980        6.90730        1.18270
F        -16.41070        7.62150        0.08020
C        -16.75530        5.53550        1.09010
C        -15.85150        2.68850        1.67280
C        -15.68840        1.28360        1.61640
C        -16.72880        0.44230        2.04190
C        -16.60180       -1.01680        1.95460
C        -16.87610       -1.83940        3.04540
C        -16.71340       -3.20480        2.95160
C        -16.29310       -3.80940        1.76760
S        -16.15300       -5.57120        1.76850
C        -14.69970       -5.91930        0.70970
C        -13.44600       -5.23230        1.21250
C        -16.06970       -2.97910        0.67310
C        -16.19970       -1.60840        0.76090
F        -15.71660       -3.48910       -0.52810
C        -17.87100        1.06290        2.53030
S        -19.31080        0.24990        3.08850
C        -14.39410        0.92140        1.15640
C        -13.60320        1.98970        0.86230
S        -14.41780        3.51920        1.13420
C        -12.26090        2.01240        0.38460
C        -11.51800        3.12640        0.13450
C        -10.21040        2.84980       -0.33230
C         -9.19500        3.77540       -0.63030
C         -9.47660        5.21270       -0.54680
C        -10.60960        5.74310       -1.16140
C        -10.95570        7.06920       -1.00210
C        -10.18410        7.91530       -0.21250
S        -10.56530        9.60330        0.11450
C        -12.37040        9.70280       -0.16470
C        -13.16170        8.88150        0.83390
C         -9.01820        7.38700        0.34460
F         -8.22700        8.18460        1.08840
C         -8.65830        6.06630        0.18910
C         -7.95840        3.24860       -0.96770
C         -7.71230        1.85350       -1.03830
C         -8.73110        0.92970       -0.74640
C         -8.47590       -0.51530       -0.75690
C         -9.30290       -1.39650       -1.45090
C         -9.03110       -2.74740       -1.46590
C         -7.94270       -3.28160       -0.77570
S         -7.73220       -5.03420       -0.85690
C         -5.92310       -5.30420       -0.77510
C         -5.18050       -4.59850       -1.89090
C         -7.15590       -2.39470       -0.04690
C         -7.39860       -1.03630       -0.04750
F         -6.11550       -2.83120        0.69910
C         -9.96690        1.45660       -0.41040
S        -11.37660        0.53550        0.05490
C         -6.38540        1.57330       -1.44140
C         -5.62560        2.68910       -1.64770
S         -6.53170        4.16290       -1.38100
C         -4.23830        2.71470       -1.98430
C         -3.41460        1.63140       -2.10050
C         -2.06890        1.96820       -2.37410
C         -0.97070        1.09780       -2.47150
C         -1.12330       -0.36150       -2.41530
C         -2.02600       -1.02290       -3.24440
C         -2.13290       -2.39990       -3.22660
C         -1.33440       -3.16470       -2.38430
S         -1.39630       -4.92890       -2.28720
C         -1.80270       -5.42200       -4.00080
C         -0.72970       -5.00430       -4.98630
C         -0.45370       -2.48930       -1.54210
F          0.32570       -3.19700       -0.69830
C         -0.33820       -1.11710       -1.54770
C          0.27270        1.68740       -2.61540
C          0.47440        3.08870       -2.69210
C         -0.62940        3.95730       -2.61650
C         -0.46420        5.41470       -2.66780
C          0.45210        6.06600       -1.84210
C          0.61120        7.43240       -1.91170
C         -0.13860        8.21100       -2.79390
S          0.14850        9.95370       -2.74350
C         -0.12570       10.53750       -4.45630
C          0.80080        9.86040       -5.44610
C         -1.07770        7.55180       -3.58120
C         -1.23490        6.18100       -3.53480
F         -1.87450        8.23230       -4.43460
C         -1.87720        3.36970       -2.46040
S         -3.38390        4.22190       -2.23590
C          1.84410        3.42110       -2.84390
C          2.68160        2.33900       -2.85890
S          1.78030        0.82980       -2.74170
C          4.09820        2.23160       -2.85070
S          4.74950        0.64930       -2.58240
C          6.38030        1.21820       -2.50050
C          6.42420        2.60040       -2.71150
C          5.12890        3.17900       -2.92180
C          5.03090        4.56350       -3.16740
C          6.15080        5.34960       -3.18520
C          6.06700        6.82180       -3.44160
C          7.42110        4.76590       -2.96450
C          7.56410        3.42990       -2.73940
C          7.37730        0.26330       -2.17080
C          7.15860       -1.08700       -2.10410
C          8.25130       -1.83340       -1.61360
C          8.30450       -3.22010       -1.37660
C          7.13030       -4.06570       -1.62060
C          5.88010       -3.71580       -1.11590
C          4.75720       -4.47400       -1.38450
C          4.84460       -5.61750       -2.17120
S          3.49860       -6.64370       -2.64850
C          2.04290       -5.91390       -1.82370
C          1.95350       -6.26880       -0.35280
C          6.10990       -5.97330       -2.64560
F          6.23230       -7.07830       -3.40820
C          7.23620       -5.22760       -2.38290
C          9.50580       -3.71830       -0.89690
C         10.61630       -2.88430       -0.61790
C         10.55180       -1.49370       -0.82060
C         11.70010       -0.65350       -0.45530
C         12.28570        0.22470       -1.36170
C         13.42230        0.93590       -1.02750
C         14.01490        0.79060        0.22160
S         15.47750        1.64110        0.73300
C         16.47390        1.68520       -0.79740
C         16.83130        0.29370       -1.27970
C         13.39090       -0.05670        1.13470
C         12.25670       -0.76910        0.81780
F         13.92750       -0.21360        2.36520
C          9.36850       -1.00320       -1.33910
S          9.01070        0.67400       -1.67120
C         11.71660       -3.61930       -0.12690
C         11.47090       -4.95470        0.02040
S          9.85140       -5.38180       -0.48640
C         12.40370       -5.88740        0.56870
C         13.66230       -5.56290        0.98360
C         14.37140       -6.64010        1.56210
C         15.66240       -6.60190        2.11240
C         16.38170       -5.32300        2.17610
C         15.76190       -4.20240        2.72630
C         16.36740       -2.96170        2.70750
C         17.62650       -2.79850        2.14030
S         18.46980       -1.26040        1.97490
C         17.58240       -0.13300        3.10330
C         17.83480       -0.46600        4.56060
C         18.25200       -3.93590        1.62570
F         19.47650       -3.81480        1.07280
C         17.65760       -5.17890        1.63840
C         16.16940       -7.80680        2.57060
C         15.42410       -9.01210        2.54960
C         14.11510       -9.03510        2.04250
C         13.30190      -10.25760        2.06860
C         13.13720      -10.97730        3.24830
C         12.36480      -12.12230        3.28720
C         11.72850      -12.58980        2.14310
S         10.74660      -14.04840        2.03470
C         10.44270      -14.52010        3.77270
C          9.47830      -13.57690        4.46660
C         11.90430      -11.85820        0.96650
C         12.66600      -10.71290        0.91580
F         11.31330      -12.29130       -0.16380
C         13.62330       -7.84090        1.53520
S         12.03790       -7.57760        0.84670
C         16.18410      -10.10140        3.07240
C         17.41420       -9.73560        3.48540
S         17.74820       -8.05100        3.27040
H        -21.08940        1.76670        3.75620
H        -19.64030        3.85620        3.17870
H        -17.59530        4.86240        4.28860
H        -17.54980        7.28930        4.42400
H        -17.55800        9.41160        4.64900
H        -16.78000       10.89520        4.08300
H        -15.27290        8.28490        4.65000
H        -15.31210        9.68490        5.72920
H        -14.55570        9.81310        4.13730
H        -16.54870        5.06820        0.14050
H        -17.18670       -1.40210        3.98150
H        -16.90660       -3.83650        3.80440
H        -14.93300       -5.64420       -0.31630
H        -14.60490       -7.00340        0.77320
H        -13.54000       -4.15010        1.14520
H        -12.59370       -5.53890        0.60960
H        -13.25410       -5.49850        2.24980
H        -16.01970       -1.01340       -0.12130
H        -14.05030       -0.09370        1.06900
H        -11.89290        4.11890        0.30850
H        -11.22220        5.10900       -1.78450
H        -11.83870        7.44210       -1.49530
H        -12.58150       10.76540       -0.04590
H        -12.58570        9.42180       -1.19450
H        -12.93750        7.82100        0.73650
H        -14.22620        9.02750        0.66420
H        -12.92190        9.19090        1.84870
H         -7.76520        5.70580        0.67450
H        -10.14580       -1.01500       -2.00570
H         -9.66210       -3.42380       -2.02110
H         -5.83270       -6.38640       -0.87010
H         -5.56180       -5.00490        0.20590
H         -4.12390       -4.85080       -1.82990
H         -5.56700       -4.90620       -2.86090
H         -5.27970       -3.51790       -1.80430
H         -6.76050       -0.39690        0.54320
H         -6.01520        0.57540       -1.58430
H         -3.74400        0.61930       -1.95580
H         -2.63710       -0.45260       -3.92790
H         -2.84480       -2.88140       -3.87850
H         -2.78060       -5.01920       -4.26190
H         -1.87910       -6.50760       -3.93960
H         -0.99150       -5.35220       -5.98350
H          0.23050       -5.43470       -4.71090
H         -0.62770       -3.92090       -5.01270
H          0.35660       -0.64740       -0.87010
H          1.02920        5.49620       -1.12970
H          1.32450        7.93190       -1.27420
H         -1.17280       10.40090       -4.71600
H          0.08640       11.60480       -4.38810
H          1.83900        9.98780       -5.14630
H          0.66490       10.29890       -6.43260
H          0.58740        8.79540       -5.51320
H         -1.96260        5.72410       -4.18730
H          2.18010        4.43680       -2.91970
H          4.06620        5.00460       -3.35710
H          5.03580        7.13940       -3.57300
H          6.49980        7.37440       -2.60860
H          6.62930        7.08100       -4.33820
H          8.29170        5.40460       -2.98600
H          8.54030        2.99740       -2.58650
H          6.22770       -1.53170       -2.40700
H          5.78490       -2.84480       -0.48510
H          3.81010       -4.15800       -0.97940
H          2.05380       -4.83850       -1.99060
H          1.19950       -6.34110       -2.36550
H          1.07040       -5.79870        0.07390
H          2.82970       -5.92460        0.19170
H          1.87440       -7.34630       -0.22930
H          8.18100       -5.54170       -2.79750
H         11.85970        0.33620       -2.34710
H         13.85720        1.60560       -1.75260
H         17.36530        2.23930       -0.50460
H         15.93660        2.26000       -1.55080
H         15.93550       -0.26880       -1.53790
H         17.46400        0.36110       -2.16220
H         17.37260       -0.24780       -0.50680
H         11.81010       -1.40930        1.56270
H         12.66210       -3.16660        0.10350
H         14.08890       -4.58430        0.87270
H         14.78850       -4.30500        3.18260
H         15.83910       -2.11810        3.12070
H         16.52420       -0.13670        2.85060
H         17.98870        0.84680        2.85240
H         17.31360        0.24890        5.19400
H         18.89890       -0.41810        4.78130
H         17.47920       -1.46590        4.80120
H         18.18010       -6.01660        1.20460
H         13.60480      -10.62500        4.15560
H         12.26850      -12.65120        4.22150
H         11.39970      -14.59470        4.28770
H         10.01530      -15.51960        3.69210
H          9.87400      -12.56400        4.49730
H          9.30090      -13.91280        5.48660
H          8.52910      -13.55640        3.93670
H         12.77310      -10.19560       -0.02440
H         15.81650      -11.11060        3.11280
H         18.17860      -10.35720        3.90930
