228

C          2.33730       -6.55750       12.75390
C          2.90710       -5.93020       11.70470
C          2.03000       -5.81460       10.58800
C          2.29830       -5.27120        9.32130
C          3.54240       -4.57860        9.03110
S          4.49250       -4.95800        7.62550
C          5.65500       -3.72480        7.98030
C          6.79540       -3.45980        7.06050
C          6.33540       -2.66470        5.83610
C          5.31000       -3.06390        9.12070
Cl         6.21320       -1.76560        9.78800
C          4.11610       -3.54720        9.72180
Cl         3.43520       -2.82910       11.12460
C          1.30740       -5.40570        8.35930
C          0.04590       -5.99290        8.61630
C         -0.24450       -6.48290        9.90170
C         -1.53450       -7.07250       10.21620
S         -2.19250       -8.37190        9.26450
C         -3.60310       -8.49440       10.25950
C         -4.69190       -9.45710        9.93730
C         -5.63400       -8.87930        8.87820
C         -3.55770       -7.56880       11.25830
C         -2.38510       -6.76610       11.24200
Cl        -2.13400       -5.48780       12.35490
Cl        -4.78640       -7.37610       12.44030
C          0.76740       -6.39740       10.85230
S          0.70410       -7.04530       12.46660
C         -0.79110       -5.96140        7.47640
C         -0.21070       -5.39970        6.37110
S          1.42070       -4.85110        6.71550
C         -0.81220       -5.24720        5.09300
S         -2.49780       -5.62750        4.92090
C         -2.49900       -5.26280        3.23730
C         -1.23720       -4.84110        2.81430
C         -0.27380       -4.82340        3.87250
C          1.03670       -4.37870        3.59570
C          1.37120       -3.93700        2.34590
C          2.75030       -3.44190        2.03800
C          0.39790       -3.93390        1.31610
C         -0.87110       -4.37620        1.53110
C         -3.68390       -5.25730        2.43650
C         -3.79680       -5.66130        1.13960
C         -4.99960       -5.24460        0.51610
C         -5.34090       -5.32320       -0.84540
C         -4.48170       -5.94470       -1.83870
S         -2.79120       -5.54240       -1.95260
C         -2.58370       -6.46530       -3.40070
C         -1.27960       -6.49370       -4.11740
C         -1.15100       -5.28820       -5.05180
C         -3.76190       -7.04570       -3.76310
Cl        -3.95160       -8.03620       -5.15010
C         -4.83820       -6.75240       -2.88290
Cl        -6.40300       -7.41750       -3.09040
C         -6.44950       -4.59390       -1.25750
C         -7.22890       -3.80400       -0.37680
C         -6.93650       -3.79890        0.99570
C         -7.62430       -2.88810        1.90590
S         -8.61400       -3.43660        3.22000
C         -8.95770       -1.81800        3.73340
C         -9.78340       -1.55540        4.94400
C         -8.94390       -1.69960        6.21570
C         -8.32210       -0.92070        2.92880
C         -7.56490       -1.52390        1.88910
Cl        -6.62660       -0.61920        0.76730
Cl        -8.41340        0.78000        3.12250
C         -5.83030       -4.52460        1.40960
S         -5.13640       -4.44390        3.00420
C         -8.05640       -2.88890       -1.07560
C         -7.86290       -2.90970       -2.42660
S         -6.83230       -4.24730       -2.91920
C         -7.96980       -1.79540       -3.31390
C         -7.40160       -1.70490       -4.55220
C         -6.97440       -0.39330       -4.87840
C         -6.07780       -0.03030       -5.89670
C         -5.63000       -1.00590       -6.88550
S         -5.93940       -0.80310       -8.58050
C         -5.13740       -2.28410       -8.98110
C         -4.99260       -2.72490      -10.39580
C         -3.77080       -2.07200      -11.04680
C         -4.64880       -2.87760       -7.85600
Cl        -3.79410       -4.36420       -7.85030
C         -4.92670       -2.15600       -6.66420
Cl        -4.37340       -2.66880       -5.12010
C         -5.48470        1.21970       -5.79460
C         -5.78340        2.12200       -4.74720
C         -6.78480        1.81820       -3.80630
C         -7.06940        2.73770       -2.72050
S         -7.06580        2.21810       -1.06120
C         -7.35350        3.81930       -0.47480
C         -7.42600        4.08790        0.98750
C         -6.10540        3.74670        1.67870
C         -7.45410        4.69410       -1.51560
C         -7.28870        4.08650       -2.78910
Cl        -7.41630        4.96520       -4.25770
Cl        -7.75130        6.37590       -1.33670
C         -7.32340        0.54160       -3.87140
S         -8.26530       -0.20820       -2.61250
C         -4.78260        3.11910       -4.61780
C         -3.77180        2.99880       -5.51800
S         -4.06890        1.72200       -6.68540
C         -2.45240        3.54150       -5.30620
C         -1.82150        3.34650       -4.11610
C         -0.49320        3.83150       -4.08840
C          0.45370        3.65950       -3.06490
C          0.08300        2.99820       -1.82470
S          0.96550        1.61710       -1.24110
C         -0.12450        1.37800        0.08390
C          0.07830        0.26830        1.05650
C          1.23220        0.56950        2.01410
C         -1.09380        2.33620        0.07590
Cl        -2.36150        2.43310        1.22940
C         -0.98210        3.25250       -1.00510
Cl        -2.05660        4.57790       -1.19680
C          1.74540        4.08260       -3.33810
C          2.10900        4.72380       -4.54880
C          1.14870        4.92380       -5.55800
C          1.48080        5.57490       -6.81320
S          2.82710        5.05710       -7.78560
C          2.50170        6.23680       -9.00810
C          3.31940        6.31120      -10.24980
C          2.76410        5.37460      -11.32560
C          1.40810        6.97740       -8.67160
C          0.82760        6.60760       -7.42890
Cl        -0.50290        7.44900       -6.75240
Cl         0.78160        8.24880       -9.63780
C         -0.13260        4.43930       -5.31380
S         -1.44500        4.36890       -6.46350
C          3.48170        5.08080       -4.55740
C          4.14950        4.70540       -3.43040
S          3.10350        3.91720       -2.26590
C          5.53670        4.84820       -3.13240
C          6.19590        4.33700       -2.05460
C          7.58460        4.61410       -2.05650
C          8.55050        4.19970       -1.12510
C          8.19370        3.35600        0.00440
S          7.35550        1.84990       -0.23570
C          7.35120        1.48890        1.45780
C          6.70300        0.25330        1.97790
C          5.18030        0.33000        1.85130
C          7.95980        2.48950        2.15390
Cl         8.14370        2.49740        3.86000
C          8.44400        3.54600        1.33440
Cl         9.18450        4.94660        1.98680
C          9.86110        4.60010       -1.35790
C         10.23730        5.39520       -2.46760
C          9.26950        5.81680       -3.39260
C          9.61820        6.62960       -4.54810
S         10.82640        6.11700       -5.68890
C         10.60640        7.52200       -6.67490
C         11.36310        7.70490       -7.94400
C         10.61780        7.07130       -9.12120
C          9.64490        8.32720       -6.14180
C          9.08410        7.82670       -4.93570
Cl         7.91590        8.69820       -4.03420
Cl         9.15150        9.81560       -6.83820
C          7.96130        5.40670       -3.16840
S          6.60130        5.72840       -4.20720
C         11.63850        5.65630       -2.47370
C         12.28490        5.06650       -1.44740
S         11.24640        4.17030       -0.39640
H          2.77570       -6.77530       13.70820
H          3.92080       -5.57460       11.70150
H          7.55720       -2.89590        7.60100
H          7.22700       -4.40780        6.73390
H          5.91690       -1.70920        6.14220
H          5.57420       -3.22020        5.29320
H          7.17630       -2.48110        5.17260
H         -5.25210       -9.66950       10.84960
H         -4.25720      -10.38750        9.56790
H         -6.42610       -9.58910        8.65610
H         -5.08770       -8.66700        7.96220
H         -6.08310       -7.95660        9.23690
H         -1.79420       -6.34770        7.46500
H          1.77590       -4.37680        4.38010
H          2.70620       -2.45070        1.58850
H          3.35670       -3.39610        2.93880
H          3.23740       -4.10670        1.32500
H          0.68160       -3.56830        0.33990
H         -1.60530       -4.35750        0.74080
H         -3.03360       -6.23000        0.64160
H         -0.46430       -6.48210       -3.39150
H         -1.21990       -7.41550       -4.69900
H         -1.21240       -4.36170       -4.48550
H         -1.95020       -5.29640       -5.78800
H         -0.19760       -5.31780       -5.57240
H        -10.18520       -0.54240        4.88170
H        -10.61570       -2.26080        4.97730
H         -9.55720       -1.50810        7.09190
H         -8.11910       -0.99160        6.20540
H         -8.53690       -2.70550        6.28580
H         -8.67230       -2.15480       -0.58830
H         -7.17550       -2.56940       -5.14930
H         -5.89010       -2.45380      -10.95410
H         -4.88210       -3.81070      -10.41620
H         -2.86600       -2.34740      -10.51090
H         -3.86840       -0.98910      -11.02990
H         -3.67860       -2.39910      -12.07890
H         -8.22420        3.48450        1.42730
H         -7.66750        5.14150        1.13620
H         -5.87620        2.69110        1.55170
H         -6.17320        3.96210        2.74180
H         -5.29200        4.33140        1.25560
H         -4.76790        3.84630       -3.82680
H         -2.27930        2.81000       -3.30630
H          0.29140       -0.65500        0.51370
H         -0.84420        0.12900        1.62230
H          1.35970       -0.25350        2.71250
H          1.02680        1.47540        2.57850
H          2.15620        0.70920        1.45850
H          3.30400        7.33880      -10.61800
H          4.35020        6.03480      -10.02220
H          1.74020        5.64640      -11.56880
H          3.36660        5.44340      -12.22720
H          2.77660        4.34580      -10.97370
H          3.96640        5.58740       -5.37210
H          5.69630        3.77430       -1.28710
H          7.06700       -0.61120        1.41830
H          6.98150        0.13220        3.02580
H          4.72860       -0.57730        2.24360
H          4.79780        1.17950        2.41160
H          4.89570        0.44360        0.80760
H         12.34870        7.24670       -7.84750
H         11.48900        8.77400       -8.12600
H         10.48790        6.00450       -8.95580
H          9.63790        7.52770       -9.23520
H         11.17960        7.21700      -10.03980
H         12.12630        6.25860       -3.21760
H         13.33290        5.10190       -1.22240
