150

C         -4.82770       -1.34600       12.61560
C         -3.49580       -1.53610       12.70710
C         -2.86380       -1.64950       11.43470
C         -1.50770       -1.88950       11.15290
C         -0.51530       -2.00230       12.20990
S         -0.32420       -0.74630       13.39850
C          0.98990       -1.56590       14.17140
C          1.70410       -0.95780       15.32760
C          2.76960        0.03290       14.85210
C          1.25640       -2.73800       13.53040
Cl         2.49230       -3.82930       14.00720
C          0.40500       -2.99050       12.42070
Cl         0.49340       -4.43860       11.50760
C         -1.14880       -1.97830        9.81530
C         -2.08030       -1.84010        8.75720
C         -3.44430       -1.64810        9.03940
C         -4.41880       -1.57510        7.96560
S         -5.55300       -0.26260        7.84120
C         -6.25160       -0.89900        6.39270
C         -7.33480       -0.17950        5.66730
C         -6.75780        0.69410        4.55110
C         -5.62950       -2.05850        6.03630
C         -4.59510       -2.44840        6.92650
Cl        -3.72770       -3.91950        6.74280
Cl        -6.05160       -2.98000        4.65150
C         -3.79810       -1.53840       10.37860
S         -5.41140       -1.29620       10.98780
C         -1.45060       -1.86690        7.49480
C         -0.09370       -2.05110        7.54650
S          0.46800       -2.18350        9.20310
C          0.76260       -2.11170        6.41750
S          0.06640       -1.77680        4.86560
C          1.56730       -2.00700        4.03050
C          2.58130       -2.34810        4.93280
C          2.12530       -2.40530        6.28950
C          3.03320       -2.74570        7.31200
C          4.34080       -3.01630        7.01560
C          5.32220       -3.38340        8.08390
C          4.78090       -2.95210        5.67170
C          3.93450       -2.63010        4.65330
C          1.57190       -1.80190        2.62770
C          0.47140       -1.45410        1.88800
C          0.73410       -1.25030        0.51920
C         -0.16720       -0.83970       -0.48230
C         -1.53600       -0.50050       -0.13130
S         -2.90140       -1.26320       -0.88910
C         -4.03000       -0.40670        0.10550
C         -5.49370       -0.66420        0.01820
C         -5.88540       -1.87450        0.86970
C         -3.37130        0.42190        0.96400
Cl        -4.15200        1.43720        2.10640
C         -1.95880        0.37520        0.83040
Cl        -0.91070        1.38050        1.74730
C          0.32100       -0.76920       -1.77560
C          1.67080       -1.05140       -2.10790
C          2.58580       -1.39860       -1.09430
C          3.99020       -1.62600       -1.39040
S          4.79200       -3.08710       -0.89350
C          6.30000       -2.58720       -1.58160
C          7.51950       -3.43140       -1.45290
C          8.12270       -3.30640       -0.05210
C          6.17520       -1.35470       -2.14870
C          4.86740       -0.80800       -2.04630
Cl         4.47760        0.76260       -2.62290
Cl         7.46020       -0.52100       -2.92420
C          2.08720       -1.50650        0.19490
S          3.00330       -1.92650        1.61740
C          1.91310       -0.92660       -3.49360
C          0.81930       -0.52750       -4.21460
S         -0.58800       -0.29900       -3.18170
C          0.71430       -0.23990       -5.59950
S         -0.53970        0.82890       -6.14330
C          0.03380        0.82050       -7.77700
C          1.12040       -0.05430       -7.91200
C          1.51410       -0.65180       -6.67380
C          2.55710       -1.60100       -6.67120
C          3.18950       -1.94210       -7.83560
C          4.29980       -2.94620       -7.85600
C          2.77160       -1.36190       -9.05700
C          1.75700       -0.45350       -9.10580
C         -0.59050        1.63230       -8.75710
S         -2.31050        1.86790       -8.72310
C         -2.29520        2.85850      -10.14500
C         -0.98450        3.06290      -10.58850
C         -0.01470        2.36740       -9.80070
C          1.35890        2.57100      -10.05130
C          1.76160        3.40080      -11.06070
C          3.21240        3.63770      -11.34470
C          0.79190        4.08070      -11.83800
C         -0.54270        3.93610      -11.60690
C         -3.51330        3.36060      -10.67930
S         -4.78640        3.87540       -9.61360
C         -5.78990        4.34270      -10.91090
C         -5.20520        4.10030      -12.13390
C         -3.89970        3.51730      -12.01190
C         -3.21810        3.10480      -13.17800
C         -3.76690        3.32520      -14.40940
C         -3.06910        2.89760      -15.66360
C         -5.03050        3.96570      -14.51940
C         -5.74320        4.33500      -13.42300
H         -5.53270       -1.22930       13.41510
H         -2.96660       -1.60070       13.63990
H          0.98620       -0.43940       15.96560
H          2.17630       -1.75430       15.90560
H          2.31030        0.83230       14.27550
H          3.50030       -0.47210       14.22540
H          3.28280        0.46760       15.70550
H         -8.01800       -0.91410        5.23520
H         -7.88840        0.44260        6.37190
H         -7.55800        1.21110        4.02850
H         -6.21410        0.08230        3.83660
H         -6.07520        1.43350        4.96300
H         -1.97600       -1.73720        6.56640
H          2.68800       -2.79700        8.33260
H          6.13690       -2.66040        8.11240
H          4.84420       -3.40970        9.05940
H          5.75500       -4.36200        7.87900
H          5.81730       -3.17030        5.45930
H          4.28890       -2.59340        3.63560
H         -0.50540       -1.35630        2.32570
H         -6.02610        0.22050        0.37290
H         -5.76940       -0.84700       -1.02160
H         -5.61260       -1.71140        1.90920
H         -6.95790       -2.04030        0.81410
H         -5.37490       -2.76660        0.51500
H          8.24810       -3.10910       -2.19870
H          7.26130       -4.47500       -1.64310
H          7.40170       -3.62540        0.69680
H          9.01100       -3.92690        0.02950
H          8.39840       -2.27420        0.14860
H          2.87910       -1.08530       -3.93160
H          2.83060       -2.08810       -5.74920
H          5.21410       -2.48810       -8.23250
H          4.04870       -3.77540       -8.51640
H          4.49180       -3.33820       -6.86060
H          3.25970       -1.67390       -9.96890
H          1.41460       -0.05630      -10.04860
H          2.08700        2.09160       -9.41510
H          3.44960        3.34610      -12.36750
H          3.45090        4.69550      -11.23840
H          3.84050        3.06820      -10.66460
H          1.13360        4.75310      -12.61150
H         -1.26630        4.50510      -12.16930
H         -6.75420        4.76610      -10.71290
H         -2.27050        2.59620      -13.08350
H         -2.88570        3.75830      -16.30640
H         -2.11830        2.42180      -15.43790
H         -3.68840        2.19490      -16.22040
H         -5.43010        4.13770      -15.50850
H         -6.71570        4.79550      -13.51060
