
  xtb     03022210533D
 energy: -272.347062248285 gnorm: 0.000283725444 xtb: 6.4.1 (unknown)
150167  0     0  0            999 V2000
   -3.8187    2.2062   13.8634 C   0  0  0  0  0  0  0  0  0  0  0  0
   -4.2025    2.0850   12.2097 S   0  0  0  0  0  0  0  0  0  0  0  0
   -2.6012    1.5679   11.7910 C   0  0  0  0  0  0  0  0  0  0  0  0
   -1.7892    1.5183   12.9263 C   0  0  0  0  0  0  0  0  0  0  0  0
   -2.5038    1.8800   14.1181 C   0  0  0  0  0  0  0  0  0  0  0  0
   -1.8453    1.8817   15.3707 C   0  0  0  0  0  0  0  0  0  0  0  0
   -0.5226    1.5594   15.4467 C   0  0  0  0  0  0  0  0  0  0  0  0
    0.2155    1.5485   16.7492 C   0  0  0  0  0  0  0  0  0  0  0  0
    0.1871    1.2418   14.2585 C   0  0  0  0  0  0  0  0  0  0  0  0
   -0.4124    1.2211   13.0360 C   0  0  0  0  0  0  0  0  0  0  0  0
   -2.3101    1.2515   10.4330 C   0  0  0  0  0  0  0  0  0  0  0  0
   -1.3185    0.4675    9.9161 C   0  0  0  0  0  0  0  0  0  0  0  0
   -1.3544    0.3553    8.5051 C   0  0  0  0  0  0  0  0  0  0  0  0
   -0.4956   -0.3832    7.6713 C   0  0  0  0  0  0  0  0  0  0  0  0
    0.5433   -1.2364    8.2229 C   0  0  0  0  0  0  0  0  0  0  0  0
    2.1964   -1.1106    7.6995 S   0  0  0  0  0  0  0  0  0  0  0  0
    2.7092   -2.3819    8.7554 C   0  0  0  0  0  0  0  0  0  0  0  0
    4.1209   -2.8546    8.7625 C   0  0  0  0  0  0  0  0  0  0  0  0
    4.3547   -3.8768    7.6474 C   0  0  0  0  0  0  0  0  0  0  0  0
    1.6487   -2.8726    9.4568 C   0  0  0  0  0  0  0  0  0  0  0  0
    1.7635   -4.1506   10.5970 Cl  0  0  0  0  0  0  0  0  0  0  0  0
    0.4202   -2.2232    9.1619 C   0  0  0  0  0  0  0  0  0  0  0  0
   -1.0701   -2.7075    9.8651 Cl  0  0  0  0  0  0  0  0  0  0  0  0
   -0.6920   -0.2677    6.3017 C   0  0  0  0  0  0  0  0  0  0  0  0
   -1.7356    0.5033    5.7343 C   0  0  0  0  0  0  0  0  0  0  0  0
   -2.6355    1.1893    6.5704 C   0  0  0  0  0  0  0  0  0  0  0  0
   -3.7515    1.9425    6.0240 C   0  0  0  0  0  0  0  0  0  0  0  0
   -4.0280    3.5959    6.4867 S   0  0  0  0  0  0  0  0  0  0  0  0
   -5.4266    3.7278    5.4771 C   0  0  0  0  0  0  0  0  0  0  0  0
   -6.2320    4.9791    5.4379 C   0  0  0  0  0  0  0  0  0  0  0  0
   -7.1688    5.0626    6.6451 C   0  0  0  0  0  0  0  0  0  0  0  0
   -5.6606    2.5482    4.8363 C   0  0  0  0  0  0  0  0  0  0  0  0
   -4.7089    1.5366    5.1354 C   0  0  0  0  0  0  0  0  0  0  0  0
   -4.8242   -0.0515    4.4903 Cl  0  0  0  0  0  0  0  0  0  0  0  0
   -6.9772    2.2869    3.7674 Cl  0  0  0  0  0  0  0  0  0  0  0  0
   -2.4047    1.1166    7.9365 C   0  0  0  0  0  0  0  0  0  0  0  0
   -3.3496    1.8979    9.1696 S   0  0  0  0  0  0  0  0  0  0  0  0
   -1.7048    0.4748    4.3201 C   0  0  0  0  0  0  0  0  0  0  0  0
   -0.7101   -0.3096    3.8116 C   0  0  0  0  0  0  0  0  0  0  0  0
    0.2614   -1.0436    5.0694 S   0  0  0  0  0  0  0  0  0  0  0  0
   -0.4391   -0.5652    2.4340 C   0  0  0  0  0  0  0  0  0  0  0  0
   -1.2552   -0.2890    1.3749 C   0  0  0  0  0  0  0  0  0  0  0  0
   -0.7109   -0.6700    0.1265 C   0  0  0  0  0  0  0  0  0  0  0  0
   -1.3000   -0.5534   -1.1479 C   0  0  0  0  0  0  0  0  0  0  0  0
   -2.6530   -0.0458   -1.3049 C   0  0  0  0  0  0  0  0  0  0  0  0
   -3.9725   -0.7463   -0.4114 S   0  0  0  0  0  0  0  0  0  0  0  0
   -5.1346    0.3077   -1.1430 C   0  0  0  0  0  0  0  0  0  0  0  0
   -6.5684    0.2552   -0.7471 C   0  0  0  0  0  0  0  0  0  0  0  0
   -6.7674    0.8214    0.6597 C   0  0  0  0  0  0  0  0  0  0  0  0
   -4.5194    1.1510   -2.0182 C   0  0  0  0  0  0  0  0  0  0  0  0
   -5.3389    2.3502   -2.9327 Cl  0  0  0  0  0  0  0  0  0  0  0  0
   -3.1152    0.9512   -2.1175 C   0  0  0  0  0  0  0  0  0  0  0  0
   -2.1188    1.9408   -3.0998 Cl  0  0  0  0  0  0  0  0  0  0  0  0
   -0.5446   -0.9735   -2.2313 C   0  0  0  0  0  0  0  0  0  0  0  0
    0.7656   -1.5017   -2.0994 C   0  0  0  0  0  0  0  0  0  0  0  0
    1.3324   -1.6650   -0.8218 C   0  0  0  0  0  0  0  0  0  0  0  0
    2.6303   -2.2963   -0.6622 C   0  0  0  0  0  0  0  0  0  0  0  0
    3.8996   -1.5592    0.2699 S   0  0  0  0  0  0  0  0  0  0  0  0
    5.0007   -2.8541   -0.0583 C   0  0  0  0  0  0  0  0  0  0  0  0
    6.4009   -2.8230    0.4467 C   0  0  0  0  0  0  0  0  0  0  0  0
    7.3009   -2.0002   -0.4783 C   0  0  0  0  0  0  0  0  0  0  0  0
    4.4063   -3.7923   -0.8478 C   0  0  0  0  0  0  0  0  0  0  0  0
    3.0618   -3.4849   -1.1849 C   0  0  0  0  0  0  0  0  0  0  0  0
    2.0704   -4.5644   -2.0811 Cl  0  0  0  0  0  0  0  0  0  0  0  0
    5.1850   -5.2230   -1.3906 Cl  0  0  0  0  0  0  0  0  0  0  0  0
    0.5842   -1.2249    0.2619 C   0  0  0  0  0  0  0  0  0  0  0  0
    1.0631   -1.3126    1.9330 S   0  0  0  0  0  0  0  0  0  0  0  0
    1.3455   -1.8099   -3.3494 C   0  0  0  0  0  0  0  0  0  0  0  0
    0.5056   -1.6125   -4.4132 C   0  0  0  0  0  0  0  0  0  0  0  0
   -1.0497   -0.9718   -3.8945 S   0  0  0  0  0  0  0  0  0  0  0  0
    0.7354   -1.8224   -5.7939 C   0  0  0  0  0  0  0  0  0  0  0  0
   -0.2433   -0.9766   -6.9459 S   0  0  0  0  0  0  0  0  0  0  0  0
    0.5969   -1.6434   -8.3128 C   0  0  0  0  0  0  0  0  0  0  0  0
    1.5942   -2.5386   -7.8695 C   0  0  0  0  0  0  0  0  0  0  0  0
    1.6642   -2.6450   -6.4460 C   0  0  0  0  0  0  0  0  0  0  0  0
    2.5609   -3.5578   -5.8578 C   0  0  0  0  0  0  0  0  0  0  0  0
    3.3905   -4.3185   -6.6368 C   0  0  0  0  0  0  0  0  0  0  0  0
    4.3497   -5.2940   -6.0296 C   0  0  0  0  0  0  0  0  0  0  0  0
    3.3250   -4.1960   -8.0422 C   0  0  0  0  0  0  0  0  0  0  0  0
    2.4465   -3.3442   -8.6482 C   0  0  0  0  0  0  0  0  0  0  0  0
    0.2930   -1.2190   -9.6210 C   0  0  0  0  0  0  0  0  0  0  0  0
    1.4530   -1.3945  -10.9060 S   0  0  0  0  0  0  0  0  0  0  0  0
    0.4681   -0.5720  -12.0756 C   0  0  0  0  0  0  0  0  0  0  0  0
   -0.7423   -0.1731  -11.4794 C   0  0  0  0  0  0  0  0  0  0  0  0
   -0.8455   -0.5424  -10.1034 C   0  0  0  0  0  0  0  0  0  0  0  0
   -2.0281   -0.2499   -9.3994 C   0  0  0  0  0  0  0  0  0  0  0  0
   -3.0509    0.4349  -10.0003 C   0  0  0  0  0  0  0  0  0  0  0  0
   -4.3164    0.7469   -9.2655 C   0  0  0  0  0  0  0  0  0  0  0  0
   -2.9055    0.8625  -11.3377 C   0  0  0  0  0  0  0  0  0  0  0  0
   -1.7911    0.5632  -12.0653 C   0  0  0  0  0  0  0  0  0  0  0  0
    0.8982   -0.4504  -13.4165 C   0  0  0  0  0  0  0  0  0  0  0  0
   -0.2501   -0.2150  -14.7079 S   0  0  0  0  0  0  0  0  0  0  0  0
    0.9546   -0.2644  -15.9114 C   0  0  0  0  0  0  0  0  0  0  0  0
    2.2114   -0.4474  -15.3790 C   0  0  0  0  0  0  0  0  0  0  0  0
    2.1946   -0.5567  -13.9489 C   0  0  0  0  0  0  0  0  0  0  0  0
    3.4198   -0.7052  -13.2693 C   0  0  0  0  0  0  0  0  0  0  0  0
    4.5975   -0.7755  -13.9630 C   0  0  0  0  0  0  0  0  0  0  0  0
    5.9079   -0.9281  -13.2553 C   0  0  0  0  0  0  0  0  0  0  0  0
    4.5938   -0.6955  -15.3787 C   0  0  0  0  0  0  0  0  0  0  0  0
    3.4397   -0.5280  -16.0771 C   0  0  0  0  0  0  0  0  0  0  0  0
   -4.5698    2.5056   14.5668 H   0  0  0  0  0  0  0  0  0  0  0  0
   -2.4084    2.1477   16.2533 H   0  0  0  0  0  0  0  0  0  0  0  0
    0.6373    0.5615   16.9358 H   0  0  0  0  0  0  0  0  0  0  0  0
    1.0390    2.2615   16.7224 H   0  0  0  0  0  0  0  0  0  0  0  0
   -0.4435    1.8079   17.5737 H   0  0  0  0  0  0  0  0  0  0  0  0
    1.2407    1.0167   14.3409 H   0  0  0  0  0  0  0  0  0  0  0  0
    0.1645    1.0025   12.1523 H   0  0  0  0  0  0  0  0  0  0  0  0
   -0.5949   -0.0440   10.5202 H   0  0  0  0  0  0  0  0  0  0  0  0
    4.3341   -3.3121    9.7303 H   0  0  0  0  0  0  0  0  0  0  0  0
    4.7892   -2.0035    8.6209 H   0  0  0  0  0  0  0  0  0  0  0  0
    3.7078   -4.7393    7.7861 H   0  0  0  0  0  0  0  0  0  0  0  0
    4.1388   -3.4329    6.6785 H   0  0  0  0  0  0  0  0  0  0  0  0
    5.3886   -4.2112    7.6577 H   0  0  0  0  0  0  0  0  0  0  0  0
   -5.5626    5.8413    5.4390 H   0  0  0  0  0  0  0  0  0  0  0  0
   -6.8166    4.9905    4.5163 H   0  0  0  0  0  0  0  0  0  0  0  0
   -7.8533    4.2180    6.6498 H   0  0  0  0  0  0  0  0  0  0  0  0
   -7.7483    5.9809    6.6052 H   0  0  0  0  0  0  0  0  0  0  0  0
   -6.5946    5.0496    7.5683 H   0  0  0  0  0  0  0  0  0  0  0  0
   -2.3791    1.0378    3.7030 H   0  0  0  0  0  0  0  0  0  0  0  0
   -2.2224    0.1637    1.4862 H   0  0  0  0  0  0  0  0  0  0  0  0
   -6.9157   -0.7801   -0.7714 H   0  0  0  0  0  0  0  0  0  0  0  0
   -7.1495    0.8346   -1.4664 H   0  0  0  0  0  0  0  0  0  0  0  0
   -7.8185    0.7850    0.9336 H   0  0  0  0  0  0  0  0  0  0  0  0
   -6.4332    1.8553    0.7017 H   0  0  0  0  0  0  0  0  0  0  0  0
   -6.1988    0.2425    1.3838 H   0  0  0  0  0  0  0  0  0  0  0  0
    6.7751   -3.8469    0.5051 H   0  0  0  0  0  0  0  0  0  0  0  0
    6.4139   -2.3873    1.4471 H   0  0  0  0  0  0  0  0  0  0  0  0
    7.3093   -2.4303   -1.4767 H   0  0  0  0  0  0  0  0  0  0  0  0
    6.9389   -0.9770   -0.5432 H   0  0  0  0  0  0  0  0  0  0  0  0
    8.3179   -1.9879   -0.0957 H   0  0  0  0  0  0  0  0  0  0  0  0
    2.3717   -2.1037   -3.4566 H   0  0  0  0  0  0  0  0  0  0  0  0
    2.5659   -3.6825   -4.7880 H   0  0  0  0  0  0  0  0  0  0  0  0
    4.2584   -5.3085   -4.9467 H   0  0  0  0  0  0  0  0  0  0  0  0
    5.3738   -5.0279   -6.2903 H   0  0  0  0  0  0  0  0  0  0  0  0
    4.1612   -6.2974   -6.4096 H   0  0  0  0  0  0  0  0  0  0  0  0
    3.9725   -4.8149   -8.6460 H   0  0  0  0  0  0  0  0  0  0  0  0
    2.3912   -3.3085   -9.7240 H   0  0  0  0  0  0  0  0  0  0  0  0
   -2.1392   -0.5774   -8.3786 H   0  0  0  0  0  0  0  0  0  0  0  0
   -4.2634    0.4066   -8.2349 H   0  0  0  0  0  0  0  0  0  0  0  0
   -5.1632    0.2623   -9.7509 H   0  0  0  0  0  0  0  0  0  0  0  0
   -4.5018    1.8203   -9.2707 H   0  0  0  0  0  0  0  0  0  0  0  0
   -3.7041    1.4323  -11.7897 H   0  0  0  0  0  0  0  0  0  0  0  0
   -1.7081    0.9019  -13.0849 H   0  0  0  0  0  0  0  0  0  0  0  0
    0.6822   -0.1512  -16.9415 H   0  0  0  0  0  0  0  0  0  0  0  0
    3.4345   -0.7501  -12.1919 H   0  0  0  0  0  0  0  0  0  0  0  0
    6.5478   -0.0691  -13.4566 H   0  0  0  0  0  0  0  0  0  0  0  0
    5.7643   -1.0113  -12.1812 H   0  0  0  0  0  0  0  0  0  0  0  0
    6.4277   -1.8177  -13.6095 H   0  0  0  0  0  0  0  0  0  0  0  0
    5.5389   -0.7587  -15.8986 H   0  0  0  0  0  0  0  0  0  0  0  0
    3.4364   -0.4506  -17.1540 H   0  0  0  0  0  0  0  0  0  0  0  0
  1  2  1  0  0  0  0
  2  3  1  0  0  0  0
  3  4  2  0  0  0  0
  4  5  1  0  0  0  0
  5  6  1  0  0  0  0
  6  7  2  0  0  0  0
  7  8  1  0  0  0  0
  7  9  1  0  0  0  0
  9 10  2  0  0  0  0
  3 11  1  0  0  0  0
 11 12  2  0  0  0  0
 12 13  1  0  0  0  0
 13 14  2  0  0  0  0
 14 15  1  0  0  0  0
 15 16  1  0  0  0  0
 16 17  1  0  0  0  0
 17 18  1  0  0  0  0
 18 19  1  0  0  0  0
 17 20  2  0  0  0  0
 20 21  1  0  0  0  0
 20 22  1  0  0  0  0
 22 23  1  0  0  0  0
 14 24  1  0  0  0  0
 24 25  2  0  0  0  0
 25 26  1  0  0  0  0
 26 27  1  0  0  0  0
 27 28  1  0  0  0  0
 28 29  1  0  0  0  0
 29 30  1  0  0  0  0
 30 31  1  0  0  0  0
 29 32  2  0  0  0  0
 32 33  1  0  0  0  0
 33 34  1  0  0  0  0
 32 35  1  0  0  0  0
 26 36  2  0  0  0  0
 36 37  1  0  0  0  0
 25 38  1  0  0  0  0
 38 39  2  0  0  0  0
 39 40  1  0  0  0  0
 39 41  1  0  0  0  0
 41 42  2  0  0  0  0
 42 43  1  0  0  0  0
 43 44  2  0  0  0  0
 44 45  1  0  0  0  0
 45 46  1  0  0  0  0
 46 47  1  0  0  0  0
 47 48  1  0  0  0  0
 48 49  1  0  0  0  0
 47 50  2  0  0  0  0
 50 51  1  0  0  0  0
 50 52  1  0  0  0  0
 52 53  1  0  0  0  0
 44 54  1  0  0  0  0
 54 55  2  0  0  0  0
 55 56  1  0  0  0  0
 56 57  1  0  0  0  0
 57 58  1  0  0  0  0
 58 59  1  0  0  0  0
 59 60  1  0  0  0  0
 60 61  1  0  0  0  0
 59 62  2  0  0  0  0
 62 63  1  0  0  0  0
 63 64  1  0  0  0  0
 62 65  1  0  0  0  0
 56 66  2  0  0  0  0
 66 67  1  0  0  0  0
 55 68  1  0  0  0  0
 68 69  2  0  0  0  0
 69 70  1  0  0  0  0
 69 71  1  0  0  0  0
 71 72  1  0  0  0  0
 72 73  1  0  0  0  0
 73 74  2  0  0  0  0
 74 75  1  0  0  0  0
 75 76  1  0  0  0  0
 76 77  2  0  0  0  0
 77 78  1  0  0  0  0
 77 79  1  0  0  0  0
 79 80  2  0  0  0  0
 73 81  1  0  0  0  0
 81 82  1  0  0  0  0
 82 83  1  0  0  0  0
 83 84  2  0  0  0  0
 84 85  1  0  0  0  0
 85 86  1  0  0  0  0
 86 87  2  0  0  0  0
 87 88  1  0  0  0  0
 87 89  1  0  0  0  0
 89 90  2  0  0  0  0
 83 91  1  0  0  0  0
 91 92  1  0  0  0  0
 92 93  1  0  0  0  0
 93 94  2  0  0  0  0
 94 95  1  0  0  0  0
 95 96  1  0  0  0  0
 96 97  2  0  0  0  0
 97 98  1  0  0  0  0
 97 99  1  0  0  0  0
 99100  2  0  0  0  0
  5  1  2  0  0  0  0
 37 11  1  0  0  0  0
 67 41  1  0  0  0  0
 75 71  2  0  0  0  0
 85 81  2  0  0  0  0
 95 91  2  0  0  0  0
 10  4  1  0  0  0  0
 36 13  1  0  0  0  0
 66 43  1  0  0  0  0
 80 74  1  0  0  0  0
 90 84  1  0  0  0  0
100 94  1  0  0  0  0
 22 15  2  0  0  0  0
 40 24  1  0  0  0  0
 52 45  2  0  0  0  0
 70 54  1  0  0  0  0
 33 27  2  0  0  0  0
 63 57  2  0  0  0  0
  1101  1  0  0  0  0
  6102  1  0  0  0  0
  8103  1  0  0  0  0
  8104  1  0  0  0  0
  8105  1  0  0  0  0
  9106  1  0  0  0  0
 10107  1  0  0  0  0
 12108  1  0  0  0  0
 18109  1  0  0  0  0
 18110  1  0  0  0  0
 19111  1  0  0  0  0
 19112  1  0  0  0  0
 19113  1  0  0  0  0
 30114  1  0  0  0  0
 30115  1  0  0  0  0
 31116  1  0  0  0  0
 31117  1  0  0  0  0
 31118  1  0  0  0  0
 38119  1  0  0  0  0
 42120  1  0  0  0  0
 48121  1  0  0  0  0
 48122  1  0  0  0  0
 49123  1  0  0  0  0
 49124  1  0  0  0  0
 49125  1  0  0  0  0
 60126  1  0  0  0  0
 60127  1  0  0  0  0
 61128  1  0  0  0  0
 61129  1  0  0  0  0
 61130  1  0  0  0  0
 68131  1  0  0  0  0
 76132  1  0  0  0  0
 78133  1  0  0  0  0
 78134  1  0  0  0  0
 78135  1  0  0  0  0
 79136  1  0  0  0  0
 80137  1  0  0  0  0
 86138  1  0  0  0  0
 88139  1  0  0  0  0
 88140  1  0  0  0  0
 88141  1  0  0  0  0
 89142  1  0  0  0  0
 90143  1  0  0  0  0
 93144  1  0  0  0  0
 96145  1  0  0  0  0
 98146  1  0  0  0  0
 98147  1  0  0  0  0
 98148  1  0  0  0  0
 99149  1  0  0  0  0
100150  1  0  0  0  0
M  END
