176

C         10.22920       -2.69570        8.21170
C          9.21220       -2.15160        7.51300
C          8.32530       -3.12860        6.97480
C          7.19830       -2.92730        6.15940
C          6.67440       -1.59570        5.90730
S          6.28600       -1.03850        4.30710
C          5.72500        0.49510        4.88850
C          5.21260        1.53950        3.95880
C          6.22770        1.88190        2.86980
C          5.83730        0.55230        6.24530
Cl         5.37580        1.90700        7.19420
C          6.37030       -0.62980        6.82650
Cl         6.52140       -0.82960        8.52510
C          6.59270       -4.06110        5.63580
C          7.00410       -5.37740        5.95810
C          8.08520       -5.57910        6.83340
C          8.51660       -6.91400        7.21030
S          8.87390       -8.12700        6.01320
C          9.30030       -9.30200        7.21010
C          9.78730      -10.65660        6.82990
C         11.30620      -10.65750        6.64110
C          9.17480       -8.76930        8.45770
C          8.72740       -7.42040        8.46290
Cl         8.40440       -6.56930        9.91460
Cl         9.50540       -9.63470        9.90180
C          8.73690       -4.44230        7.30100
S         10.18190       -4.42280        8.27120
C          6.19270       -6.35790        5.33850
C          5.21760       -5.83910        4.53340
S          5.23020       -4.07760        4.55660
C          4.25090       -6.48590        3.71950
S          2.89920       -5.55740        3.17010
C          2.22460       -6.88000        2.27550
C          3.05090       -8.00780        2.37310
C          4.19970       -7.78710        3.20010
C          5.15580       -8.81420        3.33650
C          4.99050      -10.00920        2.69080
C          5.99410      -11.11140        2.82660
C          3.86750      -10.20240        1.85240
C          2.92760       -9.23000        1.68060
C          1.05390       -6.62160        1.52020
S          0.86580       -5.00880        0.91180
C         -0.63490       -5.37180        0.12340
C         -0.99030       -6.70660        0.34410
C         -0.04690       -7.41060        1.16060
C         -0.34100       -8.72320        1.58170
C         -1.47880       -9.34890        1.14920
C         -1.81700      -10.74160        1.58150
C         -2.36680       -8.66750        0.28240
C         -2.14690       -7.37840       -0.10200
C         -1.25780       -4.31220       -0.58020
C         -0.82010       -3.01400       -0.54020
C         -1.55530       -2.12630       -1.34740
C         -1.33350       -0.74620       -1.53040
C         -0.20300       -0.10340       -0.88080
S          1.39220       -0.78930       -1.02350
C          2.08640        0.38790        0.03650
C          3.51160        0.28620        0.45500
C          3.70260       -0.88520        1.42300
C          1.13190        1.26860        0.44720
Cl         1.43810        2.57540        1.51600
C         -0.16390        1.00050       -0.07470
Cl        -1.53380        1.92830        0.37100
C         -2.22920       -0.07540       -2.34790
C         -3.31660       -0.72150       -2.99130
C         -3.50280       -2.11030       -2.84720
C         -4.55420       -2.79990       -3.57360
S         -5.66320       -3.87240       -2.77200
C         -6.51300       -4.21910       -4.23940
C         -7.64210       -5.18890       -4.26330
C         -7.12180       -6.62690       -4.32600
C         -5.95010       -3.54680       -5.28260
C         -4.84240       -2.73990       -4.90970
Cl        -3.91910       -1.86220       -6.06210
Cl        -6.51300       -3.64170       -6.90180
C         -2.62670       -2.77720       -2.00450
S         -2.65180       -4.48200       -1.63210
C         -4.11850        0.18580       -3.72020
C         -3.64870        1.47010       -3.70580
S         -2.18310        1.61460       -2.74620
C         -4.20190        2.64280       -4.28330
S         -3.78950        4.17410       -3.59720
C         -4.83640        5.04310       -4.66980
C         -5.46720        4.16630       -5.55930
C         -5.09670        2.79910       -5.34850
C         -5.59500        1.80320       -6.21240
C         -6.46070        2.13120       -7.21940
C         -7.00070        1.09170       -8.15060
C         -6.84990        3.48140       -7.39470
C         -6.36540        4.47820       -6.60140
C         -4.93010        6.44770       -4.49090
C         -4.14860        7.17270       -3.63160
C         -4.47380        8.54400       -3.56960
C         -3.89430        9.53090       -2.75330
C         -2.83270        9.18520       -1.82240
S         -3.03410        7.87790       -0.69010
C         -1.43800        8.07490       -0.05070
C         -0.91550        7.14650        0.98910
C         -0.66970        5.75260        0.40730
C         -0.80340        9.10260       -0.68100
Cl         0.80040        9.60170       -0.32780
C         -1.59110        9.73800       -1.68010
Cl        -0.98120       11.00540       -2.65870
C         -4.40850       10.81680       -2.86430
C         -5.46340       11.14930       -3.74850
C         -6.03370       10.16330       -4.57150
C         -7.13420       10.46380       -5.47420
S         -8.60010       11.19900       -4.89430
C         -9.33770       11.15340       -6.45920
C        -10.69310       11.72450       -6.69090
C        -10.61360       13.23120       -6.94860
C         -8.48170       10.60840       -7.36820
C         -7.23560       10.20920       -6.81320
Cl        -5.97360        9.55370       -7.77000
Cl        -8.85460       10.40670       -9.03090
C         -5.52450        8.87710       -4.45850
S         -6.10240        7.46730       -5.30370
C         -5.80890       12.52860       -3.65490
C         -5.07880       13.19030       -2.73360
S         -3.91570       12.19800       -1.92740
H         11.03080       -2.18880        8.71240
H          9.09570       -1.09520        7.35710
H          4.97760        2.43040        4.54350
H          4.28910        1.18610        3.49350
H          6.45780        1.00100        2.27510
H          5.82850        2.65240        2.21560
H          7.14970        2.24900        3.31370
H          9.30460      -10.96930        5.90240
H          9.51820      -11.35990        7.62040
H         11.79920      -10.35800        7.56220
H         11.58920       -9.96320        5.85350
H         11.64830      -11.65260        6.36990
H          6.31100       -7.40750        5.52390
H          6.04120       -8.64350        3.92630
H          6.37340      -11.40150        1.84760
H          5.53050      -11.98940        3.27570
H          6.83050      -10.80180        3.44800
H          3.77620      -11.13840        1.32080
H          2.10780       -9.37200        0.99470
H          0.32480       -9.21620        2.27320
H         -1.05590      -11.13990        2.24750
H         -1.90040      -11.39580        0.71420
H         -2.77570      -10.75440        2.09870
H         -3.25240       -9.18530       -0.05560
H         -2.85200       -6.86130       -0.73370
H          0.00740       -2.71460        0.07610
H          3.80310        1.22180        0.93410
H          4.14240        0.13370       -0.42290
H          3.07300       -0.76080        2.30070
H          4.73820       -0.94900        1.74580
H          3.43260       -1.82100        0.93970
H         -8.24870       -5.06210       -3.36490
H         -8.26290       -4.98380       -5.13720
H         -6.52930       -6.77460       -5.22550
H         -6.49820       -6.83890       -3.46070
H         -7.95410       -7.32540       -4.33810
H         -5.04780       -0.09510       -4.17720
H         -5.26490        0.78410       -6.09420
H         -6.59620        0.11030       -7.91710
H         -6.74730        1.33820       -9.18100
H         -8.08710        1.04820       -8.07810
H         -7.53500        3.71850       -8.19540
H         -6.65300        5.50370       -6.77020
H         -3.35780        6.72110       -3.06130
H         -1.63590        7.07220        1.80680
H          0.01690        7.55420        1.38290
H         -0.28640        5.08930        1.17760
H         -1.59550        5.33510        0.01800
H          0.05560        5.80070       -0.40140
H        -11.31990       11.53790       -5.81720
H        -11.13870       11.22870       -7.55520
H        -11.60830       13.63440       -7.11770
H        -10.17240       13.73720       -6.09300
H        -10.00240       13.43150       -7.82500
H         -6.57020       12.99170       -4.25500
H         -5.13980       14.22710       -2.46660
