200

C          7.11230       -8.55200       10.42040
C          6.74070       -7.38000       10.97310
C          5.59990       -6.80390       10.33900
C          4.93980       -5.60810       10.65950
C          5.36330       -4.77210       11.79050
C          5.51870       -5.30940       13.06760
C          5.92800       -4.51650       14.11730
C          6.19390       -3.15800       13.94300
S          6.68960       -2.24820       15.37210
C          7.77540       -0.92270       14.70630
C          8.70290       -0.45090       15.80860
C          6.00110       -2.62910       12.67070
F          6.19460       -1.31240       12.42680
C          5.60550       -3.41540       11.60770
C          3.86970       -5.25480        9.85380
C          3.41590       -6.04170        8.76660
C          4.06040       -7.25280        8.46290
C          3.58160       -8.13240        7.39040
C          2.24000       -8.50760        7.31980
C          1.80000       -9.35860        6.33040
C          2.67170       -9.88040        5.37360
S          1.97240      -11.01920        4.21720
C          2.93640      -10.81170        2.67510
C          2.87560       -9.39100        2.15270
C          4.00950       -9.51000        5.46690
C          4.46110       -8.64490        6.44330
F          4.92940       -9.98600        4.59690
C          5.15090       -7.59250        9.25300
S          6.11870       -9.03680        9.08910
C          2.32630       -5.43440        8.09710
C          1.90950       -4.25580        8.65620
S          2.88040       -3.83360       10.05840
C          0.87680       -3.41270        8.16850
S          0.26290       -3.69740        6.56800
C         -0.83640       -2.35940        6.64860
C         -0.71410       -1.69680        7.87560
C          0.24630       -2.30400        8.74520
C          0.46060       -1.75070       10.02490
C         -0.19300       -0.61230       10.40770
C          0.01910       -0.00850       11.76030
C         -1.07450        0.02720        9.50260
C         -1.33540       -0.49250        8.27080
C         -1.62870       -2.02170        5.52230
S         -0.95840       -2.18960        3.93100
C         -2.34290       -1.46900        3.16910
C         -3.32300       -1.16690        4.12070
C         -2.92650       -1.50140        5.45400
C         -3.85020       -1.36860        6.51160
C         -5.09710       -0.85830        6.27670
C         -6.10220       -0.71010        7.37570
C         -5.45750       -0.47120        4.96300
C         -4.60970       -0.62860        3.90780
C         -2.28350       -1.23550        1.77240
C         -1.30890       -1.70820        0.93250
C         -1.40070       -1.22940       -0.39160
C         -0.53060       -1.48980       -1.46730
C          0.63220       -2.36640       -1.28610
C          1.52840       -2.15340       -0.24140
C          2.57480       -3.02350       -0.01170
C          2.75250       -4.14800       -0.80990
S          4.00570       -5.36200       -0.55180
C          4.33840       -5.24150        1.24200
C          3.11410       -5.55220        2.08140
C          1.88530       -4.31550       -1.88930
F          2.05160       -5.37270       -2.70860
C          0.84330       -3.44880       -2.13620
C         -0.83300       -0.87800       -2.67020
C         -1.94280       -0.01230       -2.83940
C         -2.81480        0.24730       -1.76610
C         -3.95170        1.16420       -1.91730
C         -3.77290        2.44450       -2.43650
C         -4.83820        3.30940       -2.58940
C         -6.12270        2.92600       -2.21910
S         -7.55030        3.94750       -2.38870
C         -6.87250        5.63800       -2.27120
C         -6.25930        5.90970       -0.91210
C         -6.28900        1.63990       -1.70520
C         -5.23420        0.76800       -1.54680
F         -7.52270        1.22610       -1.35000
C         -2.52300       -0.38160       -0.56910
S         -3.41160       -0.19210        0.92160
C         -2.00830        0.50670       -4.14830
C         -0.98000        0.11340       -4.96530
S          0.10840       -0.98840       -4.13740
C         -0.77950        0.58580       -6.28680
S         -1.83940        1.83880       -6.84590
C         -1.02890        1.98300       -8.37170
C          0.02740        1.07060       -8.45080
C          0.16990        0.27570       -7.26680
C          1.18990       -0.69440       -7.20000
C          2.04120       -0.87670       -8.25490
C          3.13000       -1.90190       -8.21110
C          1.89090       -0.08540       -9.41970
C          0.91680        0.86130       -9.52560
C         -1.50740        2.97540       -9.26600
C         -2.61960        3.74450       -9.04990
C         -2.86430        4.70900      -10.05190
C         -3.92730        5.62440      -10.12140
C         -4.90290        5.73090       -9.02990
C         -6.27260        5.68520       -9.27370
C         -7.18360        5.78200       -8.24040
C         -6.75760        5.92620       -6.92510
S         -7.83810        6.11580       -5.54210
C         -9.28560        5.09930       -5.99020
C         -8.92640        3.63220       -6.11020
C         -5.38360        5.97910       -6.69630
F         -4.93140        6.11950       -5.43010
C         -4.46350        5.88410       -7.71570
C         -3.98050        6.42540      -11.25240
C         -3.01340        6.37160      -12.28550
C         -1.94550        5.46300      -12.20920
C         -0.93010        5.37520      -13.26600
C          0.42570        5.42600      -12.95880
C          1.38780        5.34690      -13.94720
C          1.02680        5.21430      -15.28280
S          2.14110        5.08910      -16.64170
C          3.75850        5.57040      -15.94470
C          3.83780        7.05400      -15.63760
C         -0.33720        5.14710      -15.57440
C         -1.30550        5.22660      -14.59980
F         -0.72520        4.99970      -16.85780
C         -1.89810        4.65350      -11.08530
S         -0.70710        3.41550      -10.76560
C         -3.26400        7.35580      -13.28790
C         -4.36090        8.09750      -13.03520
S         -5.16920        7.66400      -11.56690
H          7.93020       -9.18530       10.70370
H          7.25370       -6.91820       11.79700
H          5.30410       -6.35370       13.23660
H          6.05130       -4.93620       15.10370
H          8.33620       -1.35110       13.87700
H          7.14630       -0.11000       14.34640
H          9.31600       -1.27300       16.17100
H          9.35550        0.33200       15.42800
H          8.13150       -0.05290       16.64410
H          5.49520       -2.95380       10.63890
H          1.54460       -8.14360        8.06070
H          0.76170       -9.64860        6.28260
H          2.44980      -11.50430        1.98790
H          3.95840      -11.14180        2.84640
H          3.37930       -9.33200        1.18990
H          1.84100       -9.07680        2.02780
H          3.36770       -8.70750        2.84170
H          5.50710       -8.38100        6.45150
H          1.86480       -5.84950        7.21850
H          1.14910       -2.22850       10.70330
H          0.38980        1.01140       11.66430
H          0.73480       -0.58720       12.33800
H         -0.92240        0.03170       12.30740
H         -1.54430        0.95100        9.80700
H         -1.99480        0.01570        7.58510
H         -3.56850       -1.69870        7.50000
H         -6.40460        0.33220        7.47190
H         -6.99460       -1.29370        7.15200
H         -5.69440       -1.04530        8.32580
H         -6.44450       -0.06400        4.80030
H         -4.92060       -0.36070        2.91100
H         -0.54710       -2.38950        1.26710
H          1.41270       -1.28610        0.39100
H          3.25610       -2.82190        0.79940
H          4.75220       -4.25770        1.46090
H          5.11700       -5.98780        1.39970
H          3.38470       -5.57660        3.13550
H          2.34040       -4.80020        1.94190
H          2.70530       -6.51990        1.80230
H          0.18260       -3.64370       -2.96610
H         -2.78190        2.77530       -2.70860
H         -4.66560        4.28660       -3.01110
H         -7.74220        6.27120       -2.44370
H         -6.16970        5.79670       -3.08630
H         -6.99340        5.74790       -0.12550
H         -5.91800        6.94170       -0.86430
H         -5.40910        5.25480       -0.72970
H         -5.42210       -0.21780       -1.15140
H         -2.79540        1.15610       -4.48760
H          1.29090       -1.29640       -6.31070
H          2.99500       -2.62950       -9.01080
H          3.13440       -2.42600       -7.25930
H          4.10060       -1.42830       -8.35520
H          2.57110       -0.24920      -10.24270
H          0.81540        1.44820      -10.42470
H         -3.25850        3.60320       -8.19650
H         -6.63040        5.56070      -10.28420
H         -8.23810        5.74970       -8.46420
H         -9.97580        5.26450       -5.16330
H         -9.72910        5.49710       -6.90230
H         -9.81900        3.05060       -6.33120
H         -8.50140        3.27490       -5.17480
H         -8.20180        3.47370       -6.90730
H         -3.41160        5.94740       -7.48460
H          0.73640        5.54650      -11.93220
H          2.42640        5.38570      -13.66240
H          3.96110        4.95090      -15.07200
H          4.46320        5.30060      -16.73130
H          3.09730        7.34090      -14.89400
H          4.82700        7.30070      -15.25660
H          3.65810        7.63320      -16.54020
H         -2.34420        5.15120      -14.88140
H         -2.63180        7.50120      -14.14480
H         -4.76720        8.89600      -13.62470
