
  xtb     03032203283D
 energy: -272.348824161916 gnorm: 0.000212887916 xtb: 6.4.1 (unknown)
150167  0     0  0            999 V2000
  -13.6497    1.1093    3.7459 C   0  0  0  0  0  0  0  0  0  0  0  0
  -12.5529    1.5451    4.3983 C   0  0  0  0  0  0  0  0  0  0  0  0
  -11.3397    1.1759    3.7482 C   0  0  0  0  0  0  0  0  0  0  0  0
  -10.0200    1.4199    4.1627 C   0  0  0  0  0  0  0  0  0  0  0  0
   -9.7319    2.2557    5.3167 C   0  0  0  0  0  0  0  0  0  0  0  0
   -8.6989    1.7159    6.6055 S   0  0  0  0  0  0  0  0  0  0  0  0
   -8.8635    3.2083    7.4665 C   0  0  0  0  0  0  0  0  0  0  0  0
   -8.1330    3.4472    8.7416 C   0  0  0  0  0  0  0  0  0  0  0  0
   -6.6948    3.8949    8.4697 C   0  0  0  0  0  0  0  0  0  0  0  0
   -9.6641    4.0682    6.7761 C   0  0  0  0  0  0  0  0  0  0  0  0
  -10.0495    5.6542    7.3074 Cl  0  0  0  0  0  0  0  0  0  0  0  0
  -10.1633    3.5300    5.5598 C   0  0  0  0  0  0  0  0  0  0  0  0
  -11.1438    4.4363    4.4806 Cl  0  0  0  0  0  0  0  0  0  0  0  0
   -9.0059    0.8474    3.4090 C   0  0  0  0  0  0  0  0  0  0  0  0
   -9.2481    0.0955    2.2337 C   0  0  0  0  0  0  0  0  0  0  0  0
  -10.5664   -0.1027    1.7878 C   0  0  0  0  0  0  0  0  0  0  0  0
  -10.8461   -0.8306    0.5611 C   0  0  0  0  0  0  0  0  0  0  0  0
  -10.2226   -2.4329    0.2918 S   0  0  0  0  0  0  0  0  0  0  0  0
  -10.9570   -2.5446   -1.2716 C   0  0  0  0  0  0  0  0  0  0  0  0
  -10.7406   -3.7345   -2.1399 C   0  0  0  0  0  0  0  0  0  0  0  0
   -9.4114   -3.6240   -2.8915 C   0  0  0  0  0  0  0  0  0  0  0  0
  -11.6382   -1.3994   -1.5550 C   0  0  0  0  0  0  0  0  0  0  0  0
  -11.5836   -0.4290   -0.5177 C   0  0  0  0  0  0  0  0  0  0  0  0
  -12.3035    1.1188   -0.6714 Cl  0  0  0  0  0  0  0  0  0  0  0  0
  -12.4881   -1.1302   -3.0214 Cl  0  0  0  0  0  0  0  0  0  0  0  0
  -11.5842    0.4307    2.5708 C   0  0  0  0  0  0  0  0  0  0  0  0
  -13.2920    0.2272    2.3021 S   0  0  0  0  0  0  0  0  0  0  0  0
   -8.0476   -0.3358    1.6216 C   0  0  0  0  0  0  0  0  0  0  0  0
   -6.9173    0.0582    2.2820 C   0  0  0  0  0  0  0  0  0  0  0  0
   -7.3011    0.9893    3.7255 S   0  0  0  0  0  0  0  0  0  0  0  0
   -5.5585   -0.1989    1.9613 C   0  0  0  0  0  0  0  0  0  0  0  0
   -4.3730   -0.1942    3.2233 S   0  0  0  0  0  0  0  0  0  0  0  0
   -3.0741   -0.6047    2.1473 C   0  0  0  0  0  0  0  0  0  0  0  0
   -3.5596   -0.7267    0.8310 C   0  0  0  0  0  0  0  0  0  0  0  0
   -4.9660   -0.4929    0.7273 C   0  0  0  0  0  0  0  0  0  0  0  0
   -5.5846   -0.5325   -0.5391 C   0  0  0  0  0  0  0  0  0  0  0  0
   -4.8640   -0.8621   -1.6542 C   0  0  0  0  0  0  0  0  0  0  0  0
   -5.5029   -0.9235   -3.0068 C   0  0  0  0  0  0  0  0  0  0  0  0
   -3.4888   -1.1641   -1.5287 C   0  0  0  0  0  0  0  0  0  0  0  0
   -2.8455   -1.0886   -0.3282 C   0  0  0  0  0  0  0  0  0  0  0  0
   -1.7493   -0.7217    2.6189 C   0  0  0  0  0  0  0  0  0  0  0  0
   -0.4058   -0.4061    1.5624 S   0  0  0  0  0  0  0  0  0  0  0  0
    0.7739   -0.6489    2.8127 C   0  0  0  0  0  0  0  0  0  0  0  0
    0.1443   -1.0406    4.0042 C   0  0  0  0  0  0  0  0  0  0  0  0
   -1.2813   -1.0425    3.9077 C   0  0  0  0  0  0  0  0  0  0  0  0
   -2.0450   -1.4277    5.0258 C   0  0  0  0  0  0  0  0  0  0  0  0
   -1.4333   -1.8238    6.1855 C   0  0  0  0  0  0  0  0  0  0  0  0
   -2.2290   -2.2364    7.3842 C   0  0  0  0  0  0  0  0  0  0  0  0
   -0.0227   -1.8826    6.2441 C   0  0  0  0  0  0  0  0  0  0  0  0
    0.7529   -1.5138    5.1842 C   0  0  0  0  0  0  0  0  0  0  0  0
    2.1374   -0.4746    2.4911 C   0  0  0  0  0  0  0  0  0  0  0  0
    2.6457   -0.7630    0.8555 S   0  0  0  0  0  0  0  0  0  0  0  0
    4.3078   -0.4055    1.2044 C   0  0  0  0  0  0  0  0  0  0  0  0
    4.4597   -0.0497    2.5499 C   0  0  0  0  0  0  0  0  0  0  0  0
    3.2244   -0.0483    3.2711 C   0  0  0  0  0  0  0  0  0  0  0  0
    3.1914    0.4554    4.5865 C   0  0  0  0  0  0  0  0  0  0  0  0
    4.3465    0.8508    5.2054 C   0  0  0  0  0  0  0  0  0  0  0  0
    4.3380    1.3906    6.6017 C   0  0  0  0  0  0  0  0  0  0  0  0
    5.5759    0.7615    4.5113 C   0  0  0  0  0  0  0  0  0  0  0  0
    5.6395    0.3433    3.2154 C   0  0  0  0  0  0  0  0  0  0  0  0
    5.2336   -0.4681    0.1347 C   0  0  0  0  0  0  0  0  0  0  0  0
    4.8973   -0.5444   -1.1924 C   0  0  0  0  0  0  0  0  0  0  0  0
    6.0014   -0.6012   -2.0665 C   0  0  0  0  0  0  0  0  0  0  0  0
    5.9919   -0.6667   -3.4738 C   0  0  0  0  0  0  0  0  0  0  0  0
    4.7367   -0.7210   -4.2047 C   0  0  0  0  0  0  0  0  0  0  0  0
    3.5324   -1.9180   -3.8216 S   0  0  0  0  0  0  0  0  0  0  0  0
    2.4420   -1.3274   -5.0293 C   0  0  0  0  0  0  0  0  0  0  0  0
    1.0885   -1.9245   -5.1969 C   0  0  0  0  0  0  0  0  0  0  0  0
    0.1502   -1.4839   -4.0707 C   0  0  0  0  0  0  0  0  0  0  0  0
    2.9935   -0.2670   -5.6823 C   0  0  0  0  0  0  0  0  0  0  0  0
    2.2115    0.5945   -6.9445 Cl  0  0  0  0  0  0  0  0  0  0  0  0
    4.2941    0.0769   -5.2224 C   0  0  0  0  0  0  0  0  0  0  0  0
    5.1530    1.4255   -5.8401 Cl  0  0  0  0  0  0  0  0  0  0  0  0
    7.2241   -0.6824   -4.1089 C   0  0  0  0  0  0  0  0  0  0  0  0
    8.4565   -0.6468   -3.4093 C   0  0  0  0  0  0  0  0  0  0  0  0
    8.4637   -0.6110   -2.0017 C   0  0  0  0  0  0  0  0  0  0  0  0
    9.7101   -0.6583   -1.2571 C   0  0  0  0  0  0  0  0  0  0  0  0
   10.0837    0.5047   -0.0200 S   0  0  0  0  0  0  0  0  0  0  0  0
   11.6066   -0.2388    0.3294 C   0  0  0  0  0  0  0  0  0  0  0  0
   12.5360    0.3350    1.3412 C   0  0  0  0  0  0  0  0  0  0  0  0
   13.4695    1.3671    0.7038 C   0  0  0  0  0  0  0  0  0  0  0  0
   11.8016   -1.3201   -0.4768 C   0  0  0  0  0  0  0  0  0  0  0  0
   10.7275   -1.5649   -1.3730 C   0  0  0  0  0  0  0  0  0  0  0  0
   10.6976   -2.9210   -2.4257 Cl  0  0  0  0  0  0  0  0  0  0  0  0
   13.1990   -2.3149   -0.4196 Cl  0  0  0  0  0  0  0  0  0  0  0  0
    7.2320   -0.5602   -1.3677 C   0  0  0  0  0  0  0  0  0  0  0  0
    6.9760   -0.4707    0.3535 S   0  0  0  0  0  0  0  0  0  0  0  0
    9.5610   -0.6378   -4.2882 C   0  0  0  0  0  0  0  0  0  0  0  0
    9.2238   -0.7068   -5.6137 C   0  0  0  0  0  0  0  0  0  0  0  0
    7.4838   -0.7766   -5.8260 S   0  0  0  0  0  0  0  0  0  0  0  0
   10.1311   -0.7328   -6.7066 C   0  0  0  0  0  0  0  0  0  0  0  0
   11.8276   -0.9123   -6.3682 S   0  0  0  0  0  0  0  0  0  0  0  0
   12.2445   -0.8590   -8.0181 C   0  0  0  0  0  0  0  0  0  0  0  0
   11.1418   -0.7056   -8.8289 C   0  0  0  0  0  0  0  0  0  0  0  0
    9.9167   -0.6333   -8.0836 C   0  0  0  0  0  0  0  0  0  0  0  0
    8.7034   -0.4573   -8.7820 C   0  0  0  0  0  0  0  0  0  0  0  0
    8.6974   -0.3648  -10.1456 C   0  0  0  0  0  0  0  0  0  0  0  0
    7.4226   -0.1735  -10.9060 C   0  0  0  0  0  0  0  0  0  0  0  0
    9.9160   -0.4495  -10.8701 C   0  0  0  0  0  0  0  0  0  0  0  0
   11.1092   -0.6136  -10.2414 C   0  0  0  0  0  0  0  0  0  0  0  0
  -14.6776    1.2473    4.0189 H   0  0  0  0  0  0  0  0  0  0  0  0
  -12.5870    2.0955    5.3203 H   0  0  0  0  0  0  0  0  0  0  0  0
   -8.6575    4.2202    9.3061 H   0  0  0  0  0  0  0  0  0  0  0  0
   -8.1217    2.5287    9.3309 H   0  0  0  0  0  0  0  0  0  0  0  0
   -6.1636    3.1331    7.9041 H   0  0  0  0  0  0  0  0  0  0  0  0
   -6.6901    4.8189    7.8971 H   0  0  0  0  0  0  0  0  0  0  0  0
   -6.1727    4.0636    9.4077 H   0  0  0  0  0  0  0  0  0  0  0  0
  -11.5620   -3.8001   -2.8554 H   0  0  0  0  0  0  0  0  0  0  0  0
  -10.7363   -4.6370   -1.5264 H   0  0  0  0  0  0  0  0  0  0  0  0
   -9.2645   -4.4975   -3.5209 H   0  0  0  0  0  0  0  0  0  0  0  0
   -8.5845   -3.5570   -2.1880 H   0  0  0  0  0  0  0  0  0  0  0  0
   -9.4074   -2.7370   -3.5202 H   0  0  0  0  0  0  0  0  0  0  0  0
   -8.0298   -0.9606    0.7499 H   0  0  0  0  0  0  0  0  0  0  0  0
   -6.6289   -0.2807   -0.6269 H   0  0  0  0  0  0  0  0  0  0  0  0
   -6.5454   -0.6195   -2.9608 H   0  0  0  0  0  0  0  0  0  0  0  0
   -4.9782   -0.2716   -3.7039 H   0  0  0  0  0  0  0  0  0  0  0  0
   -5.4536   -1.9386   -3.4005 H   0  0  0  0  0  0  0  0  0  0  0  0
   -2.9381   -1.4466   -2.4137 H   0  0  0  0  0  0  0  0  0  0  0  0
   -1.7934   -1.3154   -0.2667 H   0  0  0  0  0  0  0  0  0  0  0  0
   -3.1213   -1.4339    4.9606 H   0  0  0  0  0  0  0  0  0  0  0  0
   -1.9661   -1.6183    8.2420 H   0  0  0  0  0  0  0  0  0  0  0  0
   -2.0121   -3.2721    7.6438 H   0  0  0  0  0  0  0  0  0  0  0  0
   -3.2950   -2.1388    7.1973 H   0  0  0  0  0  0  0  0  0  0  0  0
    0.4420   -2.2496    7.1476 H   0  0  0  0  0  0  0  0  0  0  0  0
    1.8257   -1.6146    5.2260 H   0  0  0  0  0  0  0  0  0  0  0  0
    2.2422    0.5575    5.0891 H   0  0  0  0  0  0  0  0  0  0  0  0
    3.3291    1.4123    7.0056 H   0  0  0  0  0  0  0  0  0  0  0  0
    4.9609    0.7733    7.2484 H   0  0  0  0  0  0  0  0  0  0  0  0
    4.7437    2.4016    6.6188 H   0  0  0  0  0  0  0  0  0  0  0  0
    6.4783    1.0641    5.0221 H   0  0  0  0  0  0  0  0  0  0  0  0
    6.5812    0.3236    2.6908 H   0  0  0  0  0  0  0  0  0  0  0  0
    3.8743   -0.5356   -1.5222 H   0  0  0  0  0  0  0  0  0  0  0  0
    0.6849   -1.6071   -6.1598 H   0  0  0  0  0  0  0  0  0  0  0  0
    1.1685   -3.0136   -5.1933 H   0  0  0  0  0  0  0  0  0  0  0  0
    0.0437   -0.4019   -4.0679 H   0  0  0  0  0  0  0  0  0  0  0  0
    0.5443   -1.7964   -3.1064 H   0  0  0  0  0  0  0  0  0  0  0  0
   -0.8306   -1.9310   -4.2094 H   0  0  0  0  0  0  0  0  0  0  0  0
   11.9572    0.8082    2.1359 H   0  0  0  0  0  0  0  0  0  0  0  0
   13.1285   -0.4745    1.7720 H   0  0  0  0  0  0  0  0  0  0  0  0
   12.8926    2.1815    0.2724 H   0  0  0  0  0  0  0  0  0  0  0  0
   14.1436    1.7740    1.4526 H   0  0  0  0  0  0  0  0  0  0  0  0
   14.0604    0.9045   -0.0826 H   0  0  0  0  0  0  0  0  0  0  0  0
   10.5813   -0.5596   -3.9590 H   0  0  0  0  0  0  0  0  0  0  0  0
   13.2720   -0.9405   -8.3121 H   0  0  0  0  0  0  0  0  0  0  0  0
    7.7771   -0.3886   -8.2340 H   0  0  0  0  0  0  0  0  0  0  0  0
    6.5761   -0.0823  -10.2308 H   0  0  0  0  0  0  0  0  0  0  0  0
    7.2495   -1.0194  -11.5709 H   0  0  0  0  0  0  0  0  0  0  0  0
    7.4797    0.7242  -11.5206 H   0  0  0  0  0  0  0  0  0  0  0  0
    9.8762   -0.3750  -11.9473 H   0  0  0  0  0  0  0  0  0  0  0  0
   12.0357   -0.6723  -10.7926 H   0  0  0  0  0  0  0  0  0  0  0  0
  1  2  2  0  0  0  0
  2  3  1  0  0  0  0
  3  4  2  0  0  0  0
  4  5  1  0  0  0  0
  5  6  1  0  0  0  0
  6  7  1  0  0  0  0
  7  8  1  0  0  0  0
  8  9  1  0  0  0  0
  7 10  2  0  0  0  0
 10 11  1  0  0  0  0
 10 12  1  0  0  0  0
 12 13  1  0  0  0  0
  4 14  1  0  0  0  0
 14 15  2  0  0  0  0
 15 16  1  0  0  0  0
 16 17  1  0  0  0  0
 17 18  1  0  0  0  0
 18 19  1  0  0  0  0
 19 20  1  0  0  0  0
 20 21  1  0  0  0  0
 19 22  2  0  0  0  0
 22 23  1  0  0  0  0
 23 24  1  0  0  0  0
 22 25  1  0  0  0  0
 16 26  2  0  0  0  0
 26 27  1  0  0  0  0
 15 28  1  0  0  0  0
 28 29  2  0  0  0  0
 29 30  1  0  0  0  0
 29 31  1  0  0  0  0
 31 32  1  0  0  0  0
 32 33  1  0  0  0  0
 33 34  2  0  0  0  0
 34 35  1  0  0  0  0
 35 36  1  0  0  0  0
 36 37  2  0  0  0  0
 37 38  1  0  0  0  0
 37 39  1  0  0  0  0
 39 40  2  0  0  0  0
 33 41  1  0  0  0  0
 41 42  1  0  0  0  0
 42 43  1  0  0  0  0
 43 44  2  0  0  0  0
 44 45  1  0  0  0  0
 45 46  1  0  0  0  0
 46 47  2  0  0  0  0
 47 48  1  0  0  0  0
 47 49  1  0  0  0  0
 49 50  2  0  0  0  0
 43 51  1  0  0  0  0
 51 52  1  0  0  0  0
 52 53  1  0  0  0  0
 53 54  2  0  0  0  0
 54 55  1  0  0  0  0
 55 56  1  0  0  0  0
 56 57  2  0  0  0  0
 57 58  1  0  0  0  0
 57 59  1  0  0  0  0
 59 60  2  0  0  0  0
 53 61  1  0  0  0  0
 61 62  2  0  0  0  0
 62 63  1  0  0  0  0
 63 64  2  0  0  0  0
 64 65  1  0  0  0  0
 65 66  1  0  0  0  0
 66 67  1  0  0  0  0
 67 68  1  0  0  0  0
 68 69  1  0  0  0  0
 67 70  2  0  0  0  0
 70 71  1  0  0  0  0
 70 72  1  0  0  0  0
 72 73  1  0  0  0  0
 64 74  1  0  0  0  0
 74 75  2  0  0  0  0
 75 76  1  0  0  0  0
 76 77  1  0  0  0  0
 77 78  1  0  0  0  0
 78 79  1  0  0  0  0
 79 80  1  0  0  0  0
 80 81  1  0  0  0  0
 79 82  2  0  0  0  0
 82 83  1  0  0  0  0
 83 84  1  0  0  0  0
 82 85  1  0  0  0  0
 76 86  2  0  0  0  0
 86 87  1  0  0  0  0
 75 88  1  0  0  0  0
 88 89  2  0  0  0  0
 89 90  1  0  0  0  0
 89 91  1  0  0  0  0
 91 92  1  0  0  0  0
 92 93  1  0  0  0  0
 93 94  2  0  0  0  0
 94 95  1  0  0  0  0
 95 96  1  0  0  0  0
 96 97  2  0  0  0  0
 97 98  1  0  0  0  0
 97 99  1  0  0  0  0
 99100  2  0  0  0  0
 27  1  1  0  0  0  0
 35 31  2  0  0  0  0
 45 41  2  0  0  0  0
 55 51  2  0  0  0  0
 87 61  1  0  0  0  0
 95 91  2  0  0  0  0
 26  3  1  0  0  0  0
 40 34  1  0  0  0  0
 50 44  1  0  0  0  0
 60 54  1  0  0  0  0
 86 63  1  0  0  0  0
100 94  1  0  0  0  0
 12  5  2  0  0  0  0
 30 14  1  0  0  0  0
 72 65  2  0  0  0  0
 90 74  1  0  0  0  0
 23 17  2  0  0  0  0
 83 77  2  0  0  0  0
  1101  1  0  0  0  0
  2102  1  0  0  0  0
  8103  1  0  0  0  0
  8104  1  0  0  0  0
  9105  1  0  0  0  0
  9106  1  0  0  0  0
  9107  1  0  0  0  0
 20108  1  0  0  0  0
 20109  1  0  0  0  0
 21110  1  0  0  0  0
 21111  1  0  0  0  0
 21112  1  0  0  0  0
 28113  1  0  0  0  0
 36114  1  0  0  0  0
 38115  1  0  0  0  0
 38116  1  0  0  0  0
 38117  1  0  0  0  0
 39118  1  0  0  0  0
 40119  1  0  0  0  0
 46120  1  0  0  0  0
 48121  1  0  0  0  0
 48122  1  0  0  0  0
 48123  1  0  0  0  0
 49124  1  0  0  0  0
 50125  1  0  0  0  0
 56126  1  0  0  0  0
 58127  1  0  0  0  0
 58128  1  0  0  0  0
 58129  1  0  0  0  0
 59130  1  0  0  0  0
 60131  1  0  0  0  0
 62132  1  0  0  0  0
 68133  1  0  0  0  0
 68134  1  0  0  0  0
 69135  1  0  0  0  0
 69136  1  0  0  0  0
 69137  1  0  0  0  0
 80138  1  0  0  0  0
 80139  1  0  0  0  0
 81140  1  0  0  0  0
 81141  1  0  0  0  0
 81142  1  0  0  0  0
 88143  1  0  0  0  0
 93144  1  0  0  0  0
 96145  1  0  0  0  0
 98146  1  0  0  0  0
 98147  1  0  0  0  0
 98148  1  0  0  0  0
 99149  1  0  0  0  0
100150  1  0  0  0  0
M  END
