
  xtb     03032210373D
 energy: -463.348347970770 gnorm: 0.000591066290 xtb: 6.4.1 (unknown)
268294  0     0  0            999 V2000
  -20.0867    1.7700    3.3756 C   0  0  0  0  0  0  0  0  0  0  0  0
  -19.3167    2.8360    3.0784 C   0  0  0  0  0  0  0  0  0  0  0  0
  -18.0272    2.4696    2.5908 C   0  0  0  0  0  0  0  0  0  0  0  0
  -16.9946    3.3093    2.1533 C   0  0  0  0  0  0  0  0  0  0  0  0
  -17.0634    4.7752    2.2169 C   0  0  0  0  0  0  0  0  0  0  0  0
  -17.3586    5.4359    3.4049 C   0  0  0  0  0  0  0  0  0  0  0  0
  -17.3178    6.8153    3.4839 C   0  0  0  0  0  0  0  0  0  0  0  0
  -16.9766    7.5829    2.3762 C   0  0  0  0  0  0  0  0  0  0  0  0
  -16.8666    9.3425    2.3433 S   0  0  0  0  0  0  0  0  0  0  0  0
  -16.7045    9.8081    4.1007 C   0  0  0  0  0  0  0  0  0  0  0  0
  -15.3787    9.3671    4.6905 C   0  0  0  0  0  0  0  0  0  0  0  0
  -16.7198    6.9073    1.1827 C   0  0  0  0  0  0  0  0  0  0  0  0
  -16.4107    7.6215    0.0802 F   0  0  0  0  0  0  0  0  0  0  0  0
  -16.7553    5.5355    1.0901 C   0  0  0  0  0  0  0  0  0  0  0  0
  -15.8515    2.6885    1.6728 C   0  0  0  0  0  0  0  0  0  0  0  0
  -15.6884    1.2836    1.6164 C   0  0  0  0  0  0  0  0  0  0  0  0
  -16.7288    0.4423    2.0419 C   0  0  0  0  0  0  0  0  0  0  0  0
  -16.6018   -1.0168    1.9546 C   0  0  0  0  0  0  0  0  0  0  0  0
  -16.8761   -1.8394    3.0454 C   0  0  0  0  0  0  0  0  0  0  0  0
  -16.7134   -3.2048    2.9516 C   0  0  0  0  0  0  0  0  0  0  0  0
  -16.2931   -3.8094    1.7676 C   0  0  0  0  0  0  0  0  0  0  0  0
  -16.1530   -5.5712    1.7685 S   0  0  0  0  0  0  0  0  0  0  0  0
  -14.6997   -5.9193    0.7097 C   0  0  0  0  0  0  0  0  0  0  0  0
  -13.4460   -5.2323    1.2125 C   0  0  0  0  0  0  0  0  0  0  0  0
  -16.0697   -2.9791    0.6731 C   0  0  0  0  0  0  0  0  0  0  0  0
  -16.1997   -1.6084    0.7609 C   0  0  0  0  0  0  0  0  0  0  0  0
  -15.7166   -3.4891   -0.5281 F   0  0  0  0  0  0  0  0  0  0  0  0
  -17.8710    1.0629    2.5303 C   0  0  0  0  0  0  0  0  0  0  0  0
  -19.3108    0.2499    3.0885 S   0  0  0  0  0  0  0  0  0  0  0  0
  -14.3941    0.9214    1.1564 C   0  0  0  0  0  0  0  0  0  0  0  0
  -13.6032    1.9897    0.8623 C   0  0  0  0  0  0  0  0  0  0  0  0
  -14.4178    3.5192    1.1342 S   0  0  0  0  0  0  0  0  0  0  0  0
  -12.2609    2.0124    0.3846 C   0  0  0  0  0  0  0  0  0  0  0  0
  -11.5180    3.1264    0.1345 C   0  0  0  0  0  0  0  0  0  0  0  0
  -10.2104    2.8498   -0.3323 C   0  0  0  0  0  0  0  0  0  0  0  0
   -9.1950    3.7754   -0.6303 C   0  0  0  0  0  0  0  0  0  0  0  0
   -9.4766    5.2127   -0.5468 C   0  0  0  0  0  0  0  0  0  0  0  0
  -10.6096    5.7431   -1.1614 C   0  0  0  0  0  0  0  0  0  0  0  0
  -10.9557    7.0692   -1.0021 C   0  0  0  0  0  0  0  0  0  0  0  0
  -10.1841    7.9153   -0.2125 C   0  0  0  0  0  0  0  0  0  0  0  0
  -10.5653    9.6033    0.1145 S   0  0  0  0  0  0  0  0  0  0  0  0
  -12.3704    9.7028   -0.1647 C   0  0  0  0  0  0  0  0  0  0  0  0
  -13.1617    8.8815    0.8339 C   0  0  0  0  0  0  0  0  0  0  0  0
   -9.0182    7.3870    0.3446 C   0  0  0  0  0  0  0  0  0  0  0  0
   -8.2270    8.1846    1.0884 F   0  0  0  0  0  0  0  0  0  0  0  0
   -8.6583    6.0663    0.1891 C   0  0  0  0  0  0  0  0  0  0  0  0
   -7.9584    3.2486   -0.9677 C   0  0  0  0  0  0  0  0  0  0  0  0
   -7.7123    1.8535   -1.0383 C   0  0  0  0  0  0  0  0  0  0  0  0
   -8.7311    0.9297   -0.7464 C   0  0  0  0  0  0  0  0  0  0  0  0
   -8.4759   -0.5153   -0.7569 C   0  0  0  0  0  0  0  0  0  0  0  0
   -9.3029   -1.3965   -1.4509 C   0  0  0  0  0  0  0  0  0  0  0  0
   -9.0311   -2.7474   -1.4659 C   0  0  0  0  0  0  0  0  0  0  0  0
   -7.9427   -3.2816   -0.7757 C   0  0  0  0  0  0  0  0  0  0  0  0
   -7.7322   -5.0342   -0.8569 S   0  0  0  0  0  0  0  0  0  0  0  0
   -5.9231   -5.3042   -0.7751 C   0  0  0  0  0  0  0  0  0  0  0  0
   -5.1805   -4.5985   -1.8909 C   0  0  0  0  0  0  0  0  0  0  0  0
   -7.1559   -2.3947   -0.0469 C   0  0  0  0  0  0  0  0  0  0  0  0
   -7.3986   -1.0363   -0.0475 C   0  0  0  0  0  0  0  0  0  0  0  0
   -6.1155   -2.8312    0.6991 F   0  0  0  0  0  0  0  0  0  0  0  0
   -9.9669    1.4566   -0.4104 C   0  0  0  0  0  0  0  0  0  0  0  0
  -11.3766    0.5355    0.0549 S   0  0  0  0  0  0  0  0  0  0  0  0
   -6.3854    1.5733   -1.4414 C   0  0  0  0  0  0  0  0  0  0  0  0
   -5.6256    2.6891   -1.6477 C   0  0  0  0  0  0  0  0  0  0  0  0
   -6.5317    4.1629   -1.3810 S   0  0  0  0  0  0  0  0  0  0  0  0
   -4.2383    2.7147   -1.9843 C   0  0  0  0  0  0  0  0  0  0  0  0
   -3.4146    1.6314   -2.1005 C   0  0  0  0  0  0  0  0  0  0  0  0
   -2.0689    1.9682   -2.3741 C   0  0  0  0  0  0  0  0  0  0  0  0
   -0.9707    1.0978   -2.4715 C   0  0  0  0  0  0  0  0  0  0  0  0
   -1.1233   -0.3615   -2.4153 C   0  0  0  0  0  0  0  0  0  0  0  0
   -2.0260   -1.0229   -3.2444 C   0  0  0  0  0  0  0  0  0  0  0  0
   -2.1329   -2.3999   -3.2266 C   0  0  0  0  0  0  0  0  0  0  0  0
   -1.3344   -3.1647   -2.3843 C   0  0  0  0  0  0  0  0  0  0  0  0
   -1.3963   -4.9289   -2.2872 S   0  0  0  0  0  0  0  0  0  0  0  0
   -1.8027   -5.4220   -4.0008 C   0  0  0  0  0  0  0  0  0  0  0  0
   -0.7297   -5.0043   -4.9863 C   0  0  0  0  0  0  0  0  0  0  0  0
   -0.4537   -2.4893   -1.5421 C   0  0  0  0  0  0  0  0  0  0  0  0
    0.3257   -3.1970   -0.6983 F   0  0  0  0  0  0  0  0  0  0  0  0
   -0.3382   -1.1171   -1.5477 C   0  0  0  0  0  0  0  0  0  0  0  0
    0.2727    1.6874   -2.6154 C   0  0  0  0  0  0  0  0  0  0  0  0
    0.4744    3.0887   -2.6921 C   0  0  0  0  0  0  0  0  0  0  0  0
   -0.6294    3.9573   -2.6165 C   0  0  0  0  0  0  0  0  0  0  0  0
   -0.4642    5.4147   -2.6678 C   0  0  0  0  0  0  0  0  0  0  0  0
    0.4521    6.0660   -1.8421 C   0  0  0  0  0  0  0  0  0  0  0  0
    0.6112    7.4324   -1.9117 C   0  0  0  0  0  0  0  0  0  0  0  0
   -0.1386    8.2110   -2.7939 C   0  0  0  0  0  0  0  0  0  0  0  0
    0.1485    9.9537   -2.7435 S   0  0  0  0  0  0  0  0  0  0  0  0
   -0.1257   10.5375   -4.4563 C   0  0  0  0  0  0  0  0  0  0  0  0
    0.8008    9.8604   -5.4461 C   0  0  0  0  0  0  0  0  0  0  0  0
   -1.0777    7.5518   -3.5812 C   0  0  0  0  0  0  0  0  0  0  0  0
   -1.2349    6.1810   -3.5348 C   0  0  0  0  0  0  0  0  0  0  0  0
   -1.8745    8.2323   -4.4346 F   0  0  0  0  0  0  0  0  0  0  0  0
   -1.8772    3.3697   -2.4604 C   0  0  0  0  0  0  0  0  0  0  0  0
   -3.3839    4.2219   -2.2359 S   0  0  0  0  0  0  0  0  0  0  0  0
    1.8441    3.4211   -2.8439 C   0  0  0  0  0  0  0  0  0  0  0  0
    2.6816    2.3390   -2.8589 C   0  0  0  0  0  0  0  0  0  0  0  0
    1.7803    0.8298   -2.7417 S   0  0  0  0  0  0  0  0  0  0  0  0
    4.0982    2.2316   -2.8507 C   0  0  0  0  0  0  0  0  0  0  0  0
    4.7495    0.6493   -2.5824 S   0  0  0  0  0  0  0  0  0  0  0  0
    6.3803    1.2182   -2.5005 C   0  0  0  0  0  0  0  0  0  0  0  0
    6.4242    2.6004   -2.7115 C   0  0  0  0  0  0  0  0  0  0  0  0
    5.1289    3.1790   -2.9218 C   0  0  0  0  0  0  0  0  0  0  0  0
    5.0309    4.5635   -3.1674 C   0  0  0  0  0  0  0  0  0  0  0  0
    6.1508    5.3496   -3.1852 C   0  0  0  0  0  0  0  0  0  0  0  0
    6.0670    6.8218   -3.4416 C   0  0  0  0  0  0  0  0  0  0  0  0
    7.4211    4.7659   -2.9645 C   0  0  0  0  0  0  0  0  0  0  0  0
    7.5641    3.4299   -2.7394 C   0  0  0  0  0  0  0  0  0  0  0  0
    7.3773    0.2633   -2.1708 C   0  0  0  0  0  0  0  0  0  0  0  0
    7.1586   -1.0870   -2.1041 C   0  0  0  0  0  0  0  0  0  0  0  0
    8.2513   -1.8334   -1.6136 C   0  0  0  0  0  0  0  0  0  0  0  0
    8.3045   -3.2201   -1.3766 C   0  0  0  0  0  0  0  0  0  0  0  0
    7.1303   -4.0657   -1.6206 C   0  0  0  0  0  0  0  0  0  0  0  0
    5.8801   -3.7158   -1.1159 C   0  0  0  0  0  0  0  0  0  0  0  0
    4.7572   -4.4740   -1.3845 C   0  0  0  0  0  0  0  0  0  0  0  0
    4.8446   -5.6175   -2.1712 C   0  0  0  0  0  0  0  0  0  0  0  0
    3.4986   -6.6437   -2.6485 S   0  0  0  0  0  0  0  0  0  0  0  0
    2.0429   -5.9139   -1.8237 C   0  0  0  0  0  0  0  0  0  0  0  0
    1.9535   -6.2688   -0.3528 C   0  0  0  0  0  0  0  0  0  0  0  0
    6.1099   -5.9733   -2.6456 C   0  0  0  0  0  0  0  0  0  0  0  0
    6.2323   -7.0783   -3.4082 F   0  0  0  0  0  0  0  0  0  0  0  0
    7.2362   -5.2276   -2.3829 C   0  0  0  0  0  0  0  0  0  0  0  0
    9.5058   -3.7183   -0.8969 C   0  0  0  0  0  0  0  0  0  0  0  0
   10.6163   -2.8843   -0.6179 C   0  0  0  0  0  0  0  0  0  0  0  0
   10.5518   -1.4937   -0.8206 C   0  0  0  0  0  0  0  0  0  0  0  0
   11.7001   -0.6535   -0.4553 C   0  0  0  0  0  0  0  0  0  0  0  0
   12.2857    0.2247   -1.3617 C   0  0  0  0  0  0  0  0  0  0  0  0
   13.4223    0.9359   -1.0275 C   0  0  0  0  0  0  0  0  0  0  0  0
   14.0149    0.7906    0.2216 C   0  0  0  0  0  0  0  0  0  0  0  0
   15.4775    1.6411    0.7330 S   0  0  0  0  0  0  0  0  0  0  0  0
   16.4739    1.6852   -0.7974 C   0  0  0  0  0  0  0  0  0  0  0  0
   16.8313    0.2937   -1.2797 C   0  0  0  0  0  0  0  0  0  0  0  0
   13.3909   -0.0567    1.1347 C   0  0  0  0  0  0  0  0  0  0  0  0
   12.2567   -0.7691    0.8178 C   0  0  0  0  0  0  0  0  0  0  0  0
   13.9275   -0.2136    2.3652 F   0  0  0  0  0  0  0  0  0  0  0  0
    9.3685   -1.0032   -1.3391 C   0  0  0  0  0  0  0  0  0  0  0  0
    9.0107    0.6740   -1.6712 S   0  0  0  0  0  0  0  0  0  0  0  0
   11.7166   -3.6193   -0.1269 C   0  0  0  0  0  0  0  0  0  0  0  0
   11.4709   -4.9547    0.0204 C   0  0  0  0  0  0  0  0  0  0  0  0
    9.8514   -5.3818   -0.4864 S   0  0  0  0  0  0  0  0  0  0  0  0
   12.4037   -5.8874    0.5687 C   0  0  0  0  0  0  0  0  0  0  0  0
   13.6623   -5.5629    0.9836 C   0  0  0  0  0  0  0  0  0  0  0  0
   14.3714   -6.6401    1.5621 C   0  0  0  0  0  0  0  0  0  0  0  0
   15.6624   -6.6019    2.1124 C   0  0  0  0  0  0  0  0  0  0  0  0
   16.3817   -5.3230    2.1761 C   0  0  0  0  0  0  0  0  0  0  0  0
   15.7619   -4.2024    2.7263 C   0  0  0  0  0  0  0  0  0  0  0  0
   16.3674   -2.9617    2.7075 C   0  0  0  0  0  0  0  0  0  0  0  0
   17.6265   -2.7985    2.1403 C   0  0  0  0  0  0  0  0  0  0  0  0
   18.4698   -1.2604    1.9749 S   0  0  0  0  0  0  0  0  0  0  0  0
   17.5824   -0.1330    3.1033 C   0  0  0  0  0  0  0  0  0  0  0  0
   17.8348   -0.4660    4.5606 C   0  0  0  0  0  0  0  0  0  0  0  0
   18.2520   -3.9359    1.6257 C   0  0  0  0  0  0  0  0  0  0  0  0
   19.4765   -3.8148    1.0728 F   0  0  0  0  0  0  0  0  0  0  0  0
   17.6576   -5.1789    1.6384 C   0  0  0  0  0  0  0  0  0  0  0  0
   16.1694   -7.8068    2.5706 C   0  0  0  0  0  0  0  0  0  0  0  0
   15.4241   -9.0121    2.5496 C   0  0  0  0  0  0  0  0  0  0  0  0
   14.1151   -9.0351    2.0425 C   0  0  0  0  0  0  0  0  0  0  0  0
   13.3019  -10.2576    2.0686 C   0  0  0  0  0  0  0  0  0  0  0  0
   13.1372  -10.9773    3.2483 C   0  0  0  0  0  0  0  0  0  0  0  0
   12.3648  -12.1223    3.2872 C   0  0  0  0  0  0  0  0  0  0  0  0
   11.7285  -12.5898    2.1431 C   0  0  0  0  0  0  0  0  0  0  0  0
   10.7466  -14.0484    2.0347 S   0  0  0  0  0  0  0  0  0  0  0  0
   10.4427  -14.5201    3.7727 C   0  0  0  0  0  0  0  0  0  0  0  0
    9.4783  -13.5769    4.4666 C   0  0  0  0  0  0  0  0  0  0  0  0
   11.9043  -11.8582    0.9665 C   0  0  0  0  0  0  0  0  0  0  0  0
   12.6660  -10.7129    0.9158 C   0  0  0  0  0  0  0  0  0  0  0  0
   11.3133  -12.2913   -0.1638 F   0  0  0  0  0  0  0  0  0  0  0  0
   13.6233   -7.8409    1.5352 C   0  0  0  0  0  0  0  0  0  0  0  0
   12.0379   -7.5776    0.8467 S   0  0  0  0  0  0  0  0  0  0  0  0
   16.1841  -10.1014    3.0724 C   0  0  0  0  0  0  0  0  0  0  0  0
   17.4142   -9.7356    3.4854 C   0  0  0  0  0  0  0  0  0  0  0  0
   17.7482   -8.0510    3.2704 S   0  0  0  0  0  0  0  0  0  0  0  0
  -21.0894    1.7667    3.7562 H   0  0  0  0  0  0  0  0  0  0  0  0
  -19.6403    3.8562    3.1787 H   0  0  0  0  0  0  0  0  0  0  0  0
  -17.5953    4.8624    4.2886 H   0  0  0  0  0  0  0  0  0  0  0  0
  -17.5498    7.2893    4.4240 H   0  0  0  0  0  0  0  0  0  0  0  0
  -17.5580    9.4116    4.6490 H   0  0  0  0  0  0  0  0  0  0  0  0
  -16.7800   10.8952    4.0830 H   0  0  0  0  0  0  0  0  0  0  0  0
  -15.2729    8.2849    4.6500 H   0  0  0  0  0  0  0  0  0  0  0  0
  -15.3121    9.6849    5.7292 H   0  0  0  0  0  0  0  0  0  0  0  0
  -14.5557    9.8131    4.1373 H   0  0  0  0  0  0  0  0  0  0  0  0
  -16.5487    5.0682    0.1405 H   0  0  0  0  0  0  0  0  0  0  0  0
  -17.1867   -1.4021    3.9815 H   0  0  0  0  0  0  0  0  0  0  0  0
  -16.9066   -3.8365    3.8044 H   0  0  0  0  0  0  0  0  0  0  0  0
  -14.9330   -5.6442   -0.3163 H   0  0  0  0  0  0  0  0  0  0  0  0
  -14.6049   -7.0034    0.7732 H   0  0  0  0  0  0  0  0  0  0  0  0
  -13.5400   -4.1501    1.1452 H   0  0  0  0  0  0  0  0  0  0  0  0
  -12.5937   -5.5389    0.6096 H   0  0  0  0  0  0  0  0  0  0  0  0
  -13.2541   -5.4985    2.2498 H   0  0  0  0  0  0  0  0  0  0  0  0
  -16.0197   -1.0134   -0.1213 H   0  0  0  0  0  0  0  0  0  0  0  0
  -14.0503   -0.0937    1.0690 H   0  0  0  0  0  0  0  0  0  0  0  0
  -11.8929    4.1189    0.3085 H   0  0  0  0  0  0  0  0  0  0  0  0
  -11.2222    5.1090   -1.7845 H   0  0  0  0  0  0  0  0  0  0  0  0
  -11.8387    7.4421   -1.4953 H   0  0  0  0  0  0  0  0  0  0  0  0
  -12.5815   10.7654   -0.0459 H   0  0  0  0  0  0  0  0  0  0  0  0
  -12.5857    9.4218   -1.1945 H   0  0  0  0  0  0  0  0  0  0  0  0
  -12.9375    7.8210    0.7365 H   0  0  0  0  0  0  0  0  0  0  0  0
  -14.2262    9.0275    0.6642 H   0  0  0  0  0  0  0  0  0  0  0  0
  -12.9219    9.1909    1.8487 H   0  0  0  0  0  0  0  0  0  0  0  0
   -7.7652    5.7058    0.6745 H   0  0  0  0  0  0  0  0  0  0  0  0
  -10.1458   -1.0150   -2.0057 H   0  0  0  0  0  0  0  0  0  0  0  0
   -9.6621   -3.4238   -2.0211 H   0  0  0  0  0  0  0  0  0  0  0  0
   -5.8327   -6.3864   -0.8701 H   0  0  0  0  0  0  0  0  0  0  0  0
   -5.5618   -5.0049    0.2059 H   0  0  0  0  0  0  0  0  0  0  0  0
   -4.1239   -4.8508   -1.8299 H   0  0  0  0  0  0  0  0  0  0  0  0
   -5.5670   -4.9062   -2.8609 H   0  0  0  0  0  0  0  0  0  0  0  0
   -5.2797   -3.5179   -1.8043 H   0  0  0  0  0  0  0  0  0  0  0  0
   -6.7605   -0.3969    0.5432 H   0  0  0  0  0  0  0  0  0  0  0  0
   -6.0152    0.5754   -1.5843 H   0  0  0  0  0  0  0  0  0  0  0  0
   -3.7440    0.6193   -1.9558 H   0  0  0  0  0  0  0  0  0  0  0  0
   -2.6371   -0.4526   -3.9279 H   0  0  0  0  0  0  0  0  0  0  0  0
   -2.8448   -2.8814   -3.8785 H   0  0  0  0  0  0  0  0  0  0  0  0
   -2.7806   -5.0192   -4.2619 H   0  0  0  0  0  0  0  0  0  0  0  0
   -1.8791   -6.5076   -3.9396 H   0  0  0  0  0  0  0  0  0  0  0  0
   -0.9915   -5.3522   -5.9835 H   0  0  0  0  0  0  0  0  0  0  0  0
    0.2305   -5.4347   -4.7109 H   0  0  0  0  0  0  0  0  0  0  0  0
   -0.6277   -3.9209   -5.0127 H   0  0  0  0  0  0  0  0  0  0  0  0
    0.3566   -0.6474   -0.8701 H   0  0  0  0  0  0  0  0  0  0  0  0
    1.0292    5.4962   -1.1297 H   0  0  0  0  0  0  0  0  0  0  0  0
    1.3245    7.9319   -1.2742 H   0  0  0  0  0  0  0  0  0  0  0  0
   -1.1728   10.4009   -4.7160 H   0  0  0  0  0  0  0  0  0  0  0  0
    0.0864   11.6048   -4.3881 H   0  0  0  0  0  0  0  0  0  0  0  0
    1.8390    9.9878   -5.1463 H   0  0  0  0  0  0  0  0  0  0  0  0
    0.6649   10.2989   -6.4326 H   0  0  0  0  0  0  0  0  0  0  0  0
    0.5874    8.7954   -5.5132 H   0  0  0  0  0  0  0  0  0  0  0  0
   -1.9626    5.7241   -4.1873 H   0  0  0  0  0  0  0  0  0  0  0  0
    2.1801    4.4368   -2.9197 H   0  0  0  0  0  0  0  0  0  0  0  0
    4.0662    5.0046   -3.3571 H   0  0  0  0  0  0  0  0  0  0  0  0
    5.0358    7.1394   -3.5730 H   0  0  0  0  0  0  0  0  0  0  0  0
    6.4998    7.3744   -2.6086 H   0  0  0  0  0  0  0  0  0  0  0  0
    6.6293    7.0810   -4.3382 H   0  0  0  0  0  0  0  0  0  0  0  0
    8.2917    5.4046   -2.9860 H   0  0  0  0  0  0  0  0  0  0  0  0
    8.5403    2.9974   -2.5865 H   0  0  0  0  0  0  0  0  0  0  0  0
    6.2277   -1.5317   -2.4070 H   0  0  0  0  0  0  0  0  0  0  0  0
    5.7849   -2.8448   -0.4851 H   0  0  0  0  0  0  0  0  0  0  0  0
    3.8101   -4.1580   -0.9794 H   0  0  0  0  0  0  0  0  0  0  0  0
    2.0538   -4.8385   -1.9906 H   0  0  0  0  0  0  0  0  0  0  0  0
    1.1995   -6.3411   -2.3655 H   0  0  0  0  0  0  0  0  0  0  0  0
    1.0704   -5.7987    0.0739 H   0  0  0  0  0  0  0  0  0  0  0  0
    2.8297   -5.9246    0.1917 H   0  0  0  0  0  0  0  0  0  0  0  0
    1.8744   -7.3463   -0.2293 H   0  0  0  0  0  0  0  0  0  0  0  0
    8.1810   -5.5417   -2.7975 H   0  0  0  0  0  0  0  0  0  0  0  0
   11.8597    0.3362   -2.3471 H   0  0  0  0  0  0  0  0  0  0  0  0
   13.8572    1.6056   -1.7526 H   0  0  0  0  0  0  0  0  0  0  0  0
   17.3653    2.2393   -0.5046 H   0  0  0  0  0  0  0  0  0  0  0  0
   15.9366    2.2600   -1.5508 H   0  0  0  0  0  0  0  0  0  0  0  0
   15.9355   -0.2688   -1.5379 H   0  0  0  0  0  0  0  0  0  0  0  0
   17.4640    0.3611   -2.1622 H   0  0  0  0  0  0  0  0  0  0  0  0
   17.3726   -0.2478   -0.5068 H   0  0  0  0  0  0  0  0  0  0  0  0
   11.8101   -1.4093    1.5627 H   0  0  0  0  0  0  0  0  0  0  0  0
   12.6621   -3.1666    0.1035 H   0  0  0  0  0  0  0  0  0  0  0  0
   14.0889   -4.5843    0.8727 H   0  0  0  0  0  0  0  0  0  0  0  0
   14.7885   -4.3050    3.1826 H   0  0  0  0  0  0  0  0  0  0  0  0
   15.8391   -2.1181    3.1207 H   0  0  0  0  0  0  0  0  0  0  0  0
   16.5242   -0.1367    2.8506 H   0  0  0  0  0  0  0  0  0  0  0  0
   17.9887    0.8468    2.8524 H   0  0  0  0  0  0  0  0  0  0  0  0
   17.3136    0.2489    5.1940 H   0  0  0  0  0  0  0  0  0  0  0  0
   18.8989   -0.4181    4.7813 H   0  0  0  0  0  0  0  0  0  0  0  0
   17.4792   -1.4659    4.8012 H   0  0  0  0  0  0  0  0  0  0  0  0
   18.1801   -6.0166    1.2046 H   0  0  0  0  0  0  0  0  0  0  0  0
   13.6048  -10.6250    4.1556 H   0  0  0  0  0  0  0  0  0  0  0  0
   12.2685  -12.6512    4.2215 H   0  0  0  0  0  0  0  0  0  0  0  0
   11.3997  -14.5947    4.2877 H   0  0  0  0  0  0  0  0  0  0  0  0
   10.0153  -15.5196    3.6921 H   0  0  0  0  0  0  0  0  0  0  0  0
    9.8740  -12.5640    4.4973 H   0  0  0  0  0  0  0  0  0  0  0  0
    9.3009  -13.9128    5.4866 H   0  0  0  0  0  0  0  0  0  0  0  0
    8.5291  -13.5564    3.9367 H   0  0  0  0  0  0  0  0  0  0  0  0
   12.7731  -10.1956   -0.0244 H   0  0  0  0  0  0  0  0  0  0  0  0
   15.8165  -11.1106    3.1128 H   0  0  0  0  0  0  0  0  0  0  0  0
   18.1786  -10.3572    3.9093 H   0  0  0  0  0  0  0  0  0  0  0  0
  1  2  2  0  0  0  0
  2  3  1  0  0  0  0
  3  4  2  0  0  0  0
  4  5  1  0  0  0  0
  5  6  2  0  0  0  0
  6  7  1  0  0  0  0
  7  8  2  0  0  0  0
  8  9  1  0  0  0  0
  9 10  1  0  0  0  0
 10 11  1  0  0  0  0
  8 12  1  0  0  0  0
 12 13  1  0  0  0  0
 12 14  2  0  0  0  0
  4 15  1  0  0  0  0
 15 16  2  0  0  0  0
 16 17  1  0  0  0  0
 17 18  1  0  0  0  0
 18 19  2  0  0  0  0
 19 20  1  0  0  0  0
 20 21  2  0  0  0  0
 21 22  1  0  0  0  0
 22 23  1  0  0  0  0
 23 24  1  0  0  0  0
 21 25  1  0  0  0  0
 25 26  2  0  0  0  0
 25 27  1  0  0  0  0
 17 28  2  0  0  0  0
 28 29  1  0  0  0  0
 16 30  1  0  0  0  0
 30 31  2  0  0  0  0
 31 32  1  0  0  0  0
 31 33  1  0  0  0  0
 33 34  2  0  0  0  0
 34 35  1  0  0  0  0
 35 36  2  0  0  0  0
 36 37  1  0  0  0  0
 37 38  2  0  0  0  0
 38 39  1  0  0  0  0
 39 40  2  0  0  0  0
 40 41  1  0  0  0  0
 41 42  1  0  0  0  0
 42 43  1  0  0  0  0
 40 44  1  0  0  0  0
 44 45  1  0  0  0  0
 44 46  2  0  0  0  0
 36 47  1  0  0  0  0
 47 48  2  0  0  0  0
 48 49  1  0  0  0  0
 49 50  1  0  0  0  0
 50 51  2  0  0  0  0
 51 52  1  0  0  0  0
 52 53  2  0  0  0  0
 53 54  1  0  0  0  0
 54 55  1  0  0  0  0
 55 56  1  0  0  0  0
 53 57  1  0  0  0  0
 57 58  2  0  0  0  0
 57 59  1  0  0  0  0
 49 60  2  0  0  0  0
 60 61  1  0  0  0  0
 48 62  1  0  0  0  0
 62 63  2  0  0  0  0
 63 64  1  0  0  0  0
 63 65  1  0  0  0  0
 65 66  2  0  0  0  0
 66 67  1  0  0  0  0
 67 68  2  0  0  0  0
 68 69  1  0  0  0  0
 69 70  2  0  0  0  0
 70 71  1  0  0  0  0
 71 72  2  0  0  0  0
 72 73  1  0  0  0  0
 73 74  1  0  0  0  0
 74 75  1  0  0  0  0
 72 76  1  0  0  0  0
 76 77  1  0  0  0  0
 76 78  2  0  0  0  0
 68 79  1  0  0  0  0
 79 80  2  0  0  0  0
 80 81  1  0  0  0  0
 81 82  1  0  0  0  0
 82 83  2  0  0  0  0
 83 84  1  0  0  0  0
 84 85  2  0  0  0  0
 85 86  1  0  0  0  0
 86 87  1  0  0  0  0
 87 88  1  0  0  0  0
 85 89  1  0  0  0  0
 89 90  2  0  0  0  0
 89 91  1  0  0  0  0
 81 92  2  0  0  0  0
 92 93  1  0  0  0  0
 80 94  1  0  0  0  0
 94 95  2  0  0  0  0
 95 96  1  0  0  0  0
 95 97  1  0  0  0  0
 97 98  1  0  0  0  0
 98 99  1  0  0  0  0
 99100  2  0  0  0  0
100101  1  0  0  0  0
101102  1  0  0  0  0
102103  2  0  0  0  0
103104  1  0  0  0  0
103105  1  0  0  0  0
105106  2  0  0  0  0
 99107  1  0  0  0  0
107108  2  0  0  0  0
108109  1  0  0  0  0
109110  2  0  0  0  0
110111  1  0  0  0  0
111112  2  0  0  0  0
112113  1  0  0  0  0
113114  2  0  0  0  0
114115  1  0  0  0  0
115116  1  0  0  0  0
116117  1  0  0  0  0
114118  1  0  0  0  0
118119  1  0  0  0  0
118120  2  0  0  0  0
110121  1  0  0  0  0
121122  2  0  0  0  0
122123  1  0  0  0  0
123124  1  0  0  0  0
124125  2  0  0  0  0
125126  1  0  0  0  0
126127  2  0  0  0  0
127128  1  0  0  0  0
128129  1  0  0  0  0
129130  1  0  0  0  0
127131  1  0  0  0  0
131132  2  0  0  0  0
131133  1  0  0  0  0
123134  2  0  0  0  0
134135  1  0  0  0  0
122136  1  0  0  0  0
136137  2  0  0  0  0
137138  1  0  0  0  0
137139  1  0  0  0  0
139140  2  0  0  0  0
140141  1  0  0  0  0
141142  2  0  0  0  0
142143  1  0  0  0  0
143144  2  0  0  0  0
144145  1  0  0  0  0
145146  2  0  0  0  0
146147  1  0  0  0  0
147148  1  0  0  0  0
148149  1  0  0  0  0
146150  1  0  0  0  0
150151  1  0  0  0  0
150152  2  0  0  0  0
142153  1  0  0  0  0
153154  2  0  0  0  0
154155  1  0  0  0  0
155156  1  0  0  0  0
156157  2  0  0  0  0
157158  1  0  0  0  0
158159  2  0  0  0  0
159160  1  0  0  0  0
160161  1  0  0  0  0
161162  1  0  0  0  0
159163  1  0  0  0  0
163164  2  0  0  0  0
163165  1  0  0  0  0
155166  2  0  0  0  0
166167  1  0  0  0  0
154168  1  0  0  0  0
168169  2  0  0  0  0
169170  1  0  0  0  0
 29  1  1  0  0  0  0
 61 33  1  0  0  0  0
 93 65  1  0  0  0  0
101 97  2  0  0  0  0
135107  1  0  0  0  0
167139  1  0  0  0  0
 28  3  1  0  0  0  0
 60 35  1  0  0  0  0
 92 67  1  0  0  0  0
106100  1  0  0  0  0
134109  1  0  0  0  0
166141  1  0  0  0  0
 14  5  1  0  0  0  0
 32 15  1  0  0  0  0
 46 37  1  0  0  0  0
 64 47  1  0  0  0  0
 78 69  1  0  0  0  0
 96 79  1  0  0  0  0
120111  1  0  0  0  0
138121  1  0  0  0  0
152143  1  0  0  0  0
170153  1  0  0  0  0
 26 18  1  0  0  0  0
 58 50  1  0  0  0  0
 90 82  1  0  0  0  0
132124  1  0  0  0  0
164156  1  0  0  0  0
  1171  1  0  0  0  0
  2172  1  0  0  0  0
  6173  1  0  0  0  0
  7174  1  0  0  0  0
 10175  1  0  0  0  0
 10176  1  0  0  0  0
 11177  1  0  0  0  0
 11178  1  0  0  0  0
 11179  1  0  0  0  0
 14180  1  0  0  0  0
 19181  1  0  0  0  0
 20182  1  0  0  0  0
 23183  1  0  0  0  0
 23184  1  0  0  0  0
 24185  1  0  0  0  0
 24186  1  0  0  0  0
 24187  1  0  0  0  0
 26188  1  0  0  0  0
 30189  1  0  0  0  0
 34190  1  0  0  0  0
 38191  1  0  0  0  0
 39192  1  0  0  0  0
 42193  1  0  0  0  0
 42194  1  0  0  0  0
 43195  1  0  0  0  0
 43196  1  0  0  0  0
 43197  1  0  0  0  0
 46198  1  0  0  0  0
 51199  1  0  0  0  0
 52200  1  0  0  0  0
 55201  1  0  0  0  0
 55202  1  0  0  0  0
 56203  1  0  0  0  0
 56204  1  0  0  0  0
 56205  1  0  0  0  0
 58206  1  0  0  0  0
 62207  1  0  0  0  0
 66208  1  0  0  0  0
 70209  1  0  0  0  0
 71210  1  0  0  0  0
 74211  1  0  0  0  0
 74212  1  0  0  0  0
 75213  1  0  0  0  0
 75214  1  0  0  0  0
 75215  1  0  0  0  0
 78216  1  0  0  0  0
 83217  1  0  0  0  0
 84218  1  0  0  0  0
 87219  1  0  0  0  0
 87220  1  0  0  0  0
 88221  1  0  0  0  0
 88222  1  0  0  0  0
 88223  1  0  0  0  0
 90224  1  0  0  0  0
 94225  1  0  0  0  0
102226  1  0  0  0  0
104227  1  0  0  0  0
104228  1  0  0  0  0
104229  1  0  0  0  0
105230  1  0  0  0  0
106231  1  0  0  0  0
108232  1  0  0  0  0
112233  1  0  0  0  0
113234  1  0  0  0  0
116235  1  0  0  0  0
116236  1  0  0  0  0
117237  1  0  0  0  0
117238  1  0  0  0  0
117239  1  0  0  0  0
120240  1  0  0  0  0
125241  1  0  0  0  0
126242  1  0  0  0  0
129243  1  0  0  0  0
129244  1  0  0  0  0
130245  1  0  0  0  0
130246  1  0  0  0  0
130247  1  0  0  0  0
132248  1  0  0  0  0
136249  1  0  0  0  0
140250  1  0  0  0  0
144251  1  0  0  0  0
145252  1  0  0  0  0
148253  1  0  0  0  0
148254  1  0  0  0  0
149255  1  0  0  0  0
149256  1  0  0  0  0
149257  1  0  0  0  0
152258  1  0  0  0  0
157259  1  0  0  0  0
158260  1  0  0  0  0
161261  1  0  0  0  0
161262  1  0  0  0  0
162263  1  0  0  0  0
162264  1  0  0  0  0
162265  1  0  0  0  0
164266  1  0  0  0  0
168267  1  0  0  0  0
169268  1  0  0  0  0
M  END
