
  xtb     03022223593D
 energy: -272.346579617850 gnorm: 0.000366141196 xtb: 6.4.1 (unknown)
150167  0     0  0            999 V2000
   -4.8277   -1.3460   12.6156 C   0  0  0  0  0  0  0  0  0  0  0  0
   -3.4958   -1.5361   12.7071 C   0  0  0  0  0  0  0  0  0  0  0  0
   -2.8638   -1.6495   11.4347 C   0  0  0  0  0  0  0  0  0  0  0  0
   -1.5077   -1.8895   11.1529 C   0  0  0  0  0  0  0  0  0  0  0  0
   -0.5153   -2.0023   12.2099 C   0  0  0  0  0  0  0  0  0  0  0  0
   -0.3242   -0.7463   13.3985 S   0  0  0  0  0  0  0  0  0  0  0  0
    0.9899   -1.5659   14.1714 C   0  0  0  0  0  0  0  0  0  0  0  0
    1.7041   -0.9578   15.3276 C   0  0  0  0  0  0  0  0  0  0  0  0
    2.7696    0.0329   14.8521 C   0  0  0  0  0  0  0  0  0  0  0  0
    1.2564   -2.7380   13.5304 C   0  0  0  0  0  0  0  0  0  0  0  0
    2.4923   -3.8293   14.0072 Cl  0  0  0  0  0  0  0  0  0  0  0  0
    0.4050   -2.9905   12.4207 C   0  0  0  0  0  0  0  0  0  0  0  0
    0.4934   -4.4386   11.5076 Cl  0  0  0  0  0  0  0  0  0  0  0  0
   -1.1488   -1.9783    9.8153 C   0  0  0  0  0  0  0  0  0  0  0  0
   -2.0803   -1.8401    8.7572 C   0  0  0  0  0  0  0  0  0  0  0  0
   -3.4443   -1.6481    9.0394 C   0  0  0  0  0  0  0  0  0  0  0  0
   -4.4188   -1.5751    7.9656 C   0  0  0  0  0  0  0  0  0  0  0  0
   -5.5530   -0.2626    7.8412 S   0  0  0  0  0  0  0  0  0  0  0  0
   -6.2516   -0.8990    6.3927 C   0  0  0  0  0  0  0  0  0  0  0  0
   -7.3348   -0.1795    5.6673 C   0  0  0  0  0  0  0  0  0  0  0  0
   -6.7578    0.6941    4.5511 C   0  0  0  0  0  0  0  0  0  0  0  0
   -5.6295   -2.0585    6.0363 C   0  0  0  0  0  0  0  0  0  0  0  0
   -4.5951   -2.4484    6.9265 C   0  0  0  0  0  0  0  0  0  0  0  0
   -3.7277   -3.9195    6.7428 Cl  0  0  0  0  0  0  0  0  0  0  0  0
   -6.0516   -2.9800    4.6515 Cl  0  0  0  0  0  0  0  0  0  0  0  0
   -3.7981   -1.5384   10.3786 C   0  0  0  0  0  0  0  0  0  0  0  0
   -5.4114   -1.2962   10.9878 S   0  0  0  0  0  0  0  0  0  0  0  0
   -1.4506   -1.8669    7.4948 C   0  0  0  0  0  0  0  0  0  0  0  0
   -0.0937   -2.0511    7.5465 C   0  0  0  0  0  0  0  0  0  0  0  0
    0.4680   -2.1835    9.2031 S   0  0  0  0  0  0  0  0  0  0  0  0
    0.7626   -2.1117    6.4175 C   0  0  0  0  0  0  0  0  0  0  0  0
    0.0664   -1.7768    4.8656 S   0  0  0  0  0  0  0  0  0  0  0  0
    1.5673   -2.0070    4.0305 C   0  0  0  0  0  0  0  0  0  0  0  0
    2.5813   -2.3481    4.9328 C   0  0  0  0  0  0  0  0  0  0  0  0
    2.1253   -2.4053    6.2895 C   0  0  0  0  0  0  0  0  0  0  0  0
    3.0332   -2.7457    7.3120 C   0  0  0  0  0  0  0  0  0  0  0  0
    4.3408   -3.0163    7.0156 C   0  0  0  0  0  0  0  0  0  0  0  0
    5.3222   -3.3834    8.0839 C   0  0  0  0  0  0  0  0  0  0  0  0
    4.7809   -2.9521    5.6717 C   0  0  0  0  0  0  0  0  0  0  0  0
    3.9345   -2.6301    4.6533 C   0  0  0  0  0  0  0  0  0  0  0  0
    1.5719   -1.8019    2.6277 C   0  0  0  0  0  0  0  0  0  0  0  0
    0.4714   -1.4541    1.8880 C   0  0  0  0  0  0  0  0  0  0  0  0
    0.7341   -1.2503    0.5192 C   0  0  0  0  0  0  0  0  0  0  0  0
   -0.1672   -0.8397   -0.4823 C   0  0  0  0  0  0  0  0  0  0  0  0
   -1.5360   -0.5005   -0.1313 C   0  0  0  0  0  0  0  0  0  0  0  0
   -2.9014   -1.2632   -0.8891 S   0  0  0  0  0  0  0  0  0  0  0  0
   -4.0300   -0.4067    0.1055 C   0  0  0  0  0  0  0  0  0  0  0  0
   -5.4937   -0.6642    0.0182 C   0  0  0  0  0  0  0  0  0  0  0  0
   -5.8854   -1.8745    0.8697 C   0  0  0  0  0  0  0  0  0  0  0  0
   -3.3713    0.4219    0.9640 C   0  0  0  0  0  0  0  0  0  0  0  0
   -4.1520    1.4372    2.1064 Cl  0  0  0  0  0  0  0  0  0  0  0  0
   -1.9588    0.3752    0.8304 C   0  0  0  0  0  0  0  0  0  0  0  0
   -0.9107    1.3805    1.7473 Cl  0  0  0  0  0  0  0  0  0  0  0  0
    0.3210   -0.7692   -1.7756 C   0  0  0  0  0  0  0  0  0  0  0  0
    1.6708   -1.0514   -2.1079 C   0  0  0  0  0  0  0  0  0  0  0  0
    2.5858   -1.3986   -1.0943 C   0  0  0  0  0  0  0  0  0  0  0  0
    3.9902   -1.6260   -1.3904 C   0  0  0  0  0  0  0  0  0  0  0  0
    4.7920   -3.0871   -0.8935 S   0  0  0  0  0  0  0  0  0  0  0  0
    6.3000   -2.5872   -1.5816 C   0  0  0  0  0  0  0  0  0  0  0  0
    7.5195   -3.4314   -1.4529 C   0  0  0  0  0  0  0  0  0  0  0  0
    8.1227   -3.3064   -0.0521 C   0  0  0  0  0  0  0  0  0  0  0  0
    6.1752   -1.3547   -2.1487 C   0  0  0  0  0  0  0  0  0  0  0  0
    4.8674   -0.8080   -2.0463 C   0  0  0  0  0  0  0  0  0  0  0  0
    4.4776    0.7626   -2.6229 Cl  0  0  0  0  0  0  0  0  0  0  0  0
    7.4602   -0.5210   -2.9242 Cl  0  0  0  0  0  0  0  0  0  0  0  0
    2.0872   -1.5065    0.1949 C   0  0  0  0  0  0  0  0  0  0  0  0
    3.0033   -1.9265    1.6174 S   0  0  0  0  0  0  0  0  0  0  0  0
    1.9131   -0.9266   -3.4936 C   0  0  0  0  0  0  0  0  0  0  0  0
    0.8193   -0.5275   -4.2146 C   0  0  0  0  0  0  0  0  0  0  0  0
   -0.5880   -0.2990   -3.1817 S   0  0  0  0  0  0  0  0  0  0  0  0
    0.7143   -0.2399   -5.5995 C   0  0  0  0  0  0  0  0  0  0  0  0
   -0.5397    0.8289   -6.1433 S   0  0  0  0  0  0  0  0  0  0  0  0
    0.0338    0.8205   -7.7770 C   0  0  0  0  0  0  0  0  0  0  0  0
    1.1204   -0.0543   -7.9120 C   0  0  0  0  0  0  0  0  0  0  0  0
    1.5141   -0.6518   -6.6738 C   0  0  0  0  0  0  0  0  0  0  0  0
    2.5571   -1.6010   -6.6712 C   0  0  0  0  0  0  0  0  0  0  0  0
    3.1895   -1.9421   -7.8356 C   0  0  0  0  0  0  0  0  0  0  0  0
    4.2998   -2.9462   -7.8560 C   0  0  0  0  0  0  0  0  0  0  0  0
    2.7716   -1.3619   -9.0570 C   0  0  0  0  0  0  0  0  0  0  0  0
    1.7570   -0.4535   -9.1058 C   0  0  0  0  0  0  0  0  0  0  0  0
   -0.5905    1.6323   -8.7571 C   0  0  0  0  0  0  0  0  0  0  0  0
   -2.3105    1.8679   -8.7231 S   0  0  0  0  0  0  0  0  0  0  0  0
   -2.2952    2.8585  -10.1450 C   0  0  0  0  0  0  0  0  0  0  0  0
   -0.9845    3.0629  -10.5885 C   0  0  0  0  0  0  0  0  0  0  0  0
   -0.0147    2.3674   -9.8007 C   0  0  0  0  0  0  0  0  0  0  0  0
    1.3589    2.5710  -10.0513 C   0  0  0  0  0  0  0  0  0  0  0  0
    1.7616    3.4008  -11.0607 C   0  0  0  0  0  0  0  0  0  0  0  0
    3.2124    3.6377  -11.3447 C   0  0  0  0  0  0  0  0  0  0  0  0
    0.7919    4.0807  -11.8380 C   0  0  0  0  0  0  0  0  0  0  0  0
   -0.5427    3.9361  -11.6069 C   0  0  0  0  0  0  0  0  0  0  0  0
   -3.5133    3.3606  -10.6793 C   0  0  0  0  0  0  0  0  0  0  0  0
   -4.7864    3.8754   -9.6136 S   0  0  0  0  0  0  0  0  0  0  0  0
   -5.7899    4.3427  -10.9109 C   0  0  0  0  0  0  0  0  0  0  0  0
   -5.2052    4.1003  -12.1339 C   0  0  0  0  0  0  0  0  0  0  0  0
   -3.8997    3.5173  -12.0119 C   0  0  0  0  0  0  0  0  0  0  0  0
   -3.2181    3.1048  -13.1780 C   0  0  0  0  0  0  0  0  0  0  0  0
   -3.7669    3.3252  -14.4094 C   0  0  0  0  0  0  0  0  0  0  0  0
   -3.0691    2.8976  -15.6636 C   0  0  0  0  0  0  0  0  0  0  0  0
   -5.0305    3.9657  -14.5194 C   0  0  0  0  0  0  0  0  0  0  0  0
   -5.7432    4.3350  -13.4230 C   0  0  0  0  0  0  0  0  0  0  0  0
   -5.5327   -1.2293   13.4151 H   0  0  0  0  0  0  0  0  0  0  0  0
   -2.9666   -1.6007   13.6399 H   0  0  0  0  0  0  0  0  0  0  0  0
    0.9862   -0.4394   15.9656 H   0  0  0  0  0  0  0  0  0  0  0  0
    2.1763   -1.7543   15.9056 H   0  0  0  0  0  0  0  0  0  0  0  0
    2.3103    0.8323   14.2755 H   0  0  0  0  0  0  0  0  0  0  0  0
    3.5003   -0.4721   14.2254 H   0  0  0  0  0  0  0  0  0  0  0  0
    3.2828    0.4676   15.7055 H   0  0  0  0  0  0  0  0  0  0  0  0
   -8.0180   -0.9141    5.2352 H   0  0  0  0  0  0  0  0  0  0  0  0
   -7.8884    0.4426    6.3719 H   0  0  0  0  0  0  0  0  0  0  0  0
   -7.5580    1.2111    4.0285 H   0  0  0  0  0  0  0  0  0  0  0  0
   -6.2141    0.0823    3.8366 H   0  0  0  0  0  0  0  0  0  0  0  0
   -6.0752    1.4335    4.9630 H   0  0  0  0  0  0  0  0  0  0  0  0
   -1.9760   -1.7372    6.5664 H   0  0  0  0  0  0  0  0  0  0  0  0
    2.6880   -2.7970    8.3326 H   0  0  0  0  0  0  0  0  0  0  0  0
    6.1369   -2.6604    8.1124 H   0  0  0  0  0  0  0  0  0  0  0  0
    4.8442   -3.4097    9.0594 H   0  0  0  0  0  0  0  0  0  0  0  0
    5.7550   -4.3620    7.8790 H   0  0  0  0  0  0  0  0  0  0  0  0
    5.8173   -3.1703    5.4593 H   0  0  0  0  0  0  0  0  0  0  0  0
    4.2889   -2.5934    3.6356 H   0  0  0  0  0  0  0  0  0  0  0  0
   -0.5054   -1.3563    2.3257 H   0  0  0  0  0  0  0  0  0  0  0  0
   -6.0261    0.2205    0.3729 H   0  0  0  0  0  0  0  0  0  0  0  0
   -5.7694   -0.8470   -1.0216 H   0  0  0  0  0  0  0  0  0  0  0  0
   -5.6126   -1.7114    1.9092 H   0  0  0  0  0  0  0  0  0  0  0  0
   -6.9579   -2.0403    0.8141 H   0  0  0  0  0  0  0  0  0  0  0  0
   -5.3749   -2.7666    0.5150 H   0  0  0  0  0  0  0  0  0  0  0  0
    8.2481   -3.1091   -2.1987 H   0  0  0  0  0  0  0  0  0  0  0  0
    7.2613   -4.4750   -1.6431 H   0  0  0  0  0  0  0  0  0  0  0  0
    7.4017   -3.6254    0.6968 H   0  0  0  0  0  0  0  0  0  0  0  0
    9.0110   -3.9269    0.0295 H   0  0  0  0  0  0  0  0  0  0  0  0
    8.3984   -2.2742    0.1486 H   0  0  0  0  0  0  0  0  0  0  0  0
    2.8791   -1.0853   -3.9316 H   0  0  0  0  0  0  0  0  0  0  0  0
    2.8306   -2.0881   -5.7492 H   0  0  0  0  0  0  0  0  0  0  0  0
    5.2141   -2.4881   -8.2325 H   0  0  0  0  0  0  0  0  0  0  0  0
    4.0487   -3.7754   -8.5164 H   0  0  0  0  0  0  0  0  0  0  0  0
    4.4918   -3.3382   -6.8606 H   0  0  0  0  0  0  0  0  0  0  0  0
    3.2597   -1.6739   -9.9689 H   0  0  0  0  0  0  0  0  0  0  0  0
    1.4146   -0.0563  -10.0486 H   0  0  0  0  0  0  0  0  0  0  0  0
    2.0870    2.0916   -9.4151 H   0  0  0  0  0  0  0  0  0  0  0  0
    3.4496    3.3461  -12.3675 H   0  0  0  0  0  0  0  0  0  0  0  0
    3.4509    4.6955  -11.2384 H   0  0  0  0  0  0  0  0  0  0  0  0
    3.8405    3.0682  -10.6646 H   0  0  0  0  0  0  0  0  0  0  0  0
    1.1336    4.7531  -12.6115 H   0  0  0  0  0  0  0  0  0  0  0  0
   -1.2663    4.5051  -12.1693 H   0  0  0  0  0  0  0  0  0  0  0  0
   -6.7542    4.7661  -10.7129 H   0  0  0  0  0  0  0  0  0  0  0  0
   -2.2705    2.5962  -13.0835 H   0  0  0  0  0  0  0  0  0  0  0  0
   -2.8857    3.7583  -16.3064 H   0  0  0  0  0  0  0  0  0  0  0  0
   -2.1183    2.4218  -15.4379 H   0  0  0  0  0  0  0  0  0  0  0  0
   -3.6884    2.1949  -16.2204 H   0  0  0  0  0  0  0  0  0  0  0  0
   -5.4301    4.1377  -15.5085 H   0  0  0  0  0  0  0  0  0  0  0  0
   -6.7157    4.7955  -13.5106 H   0  0  0  0  0  0  0  0  0  0  0  0
  1  2  2  0  0  0  0
  2  3  1  0  0  0  0
  3  4  2  0  0  0  0
  4  5  1  0  0  0  0
  5  6  1  0  0  0  0
  6  7  1  0  0  0  0
  7  8  1  0  0  0  0
  8  9  1  0  0  0  0
  7 10  2  0  0  0  0
 10 11  1  0  0  0  0
 10 12  1  0  0  0  0
 12 13  1  0  0  0  0
  4 14  1  0  0  0  0
 14 15  2  0  0  0  0
 15 16  1  0  0  0  0
 16 17  1  0  0  0  0
 17 18  1  0  0  0  0
 18 19  1  0  0  0  0
 19 20  1  0  0  0  0
 20 21  1  0  0  0  0
 19 22  2  0  0  0  0
 22 23  1  0  0  0  0
 23 24  1  0  0  0  0
 22 25  1  0  0  0  0
 16 26  2  0  0  0  0
 26 27  1  0  0  0  0
 15 28  1  0  0  0  0
 28 29  2  0  0  0  0
 29 30  1  0  0  0  0
 29 31  1  0  0  0  0
 31 32  1  0  0  0  0
 32 33  1  0  0  0  0
 33 34  2  0  0  0  0
 34 35  1  0  0  0  0
 35 36  1  0  0  0  0
 36 37  2  0  0  0  0
 37 38  1  0  0  0  0
 37 39  1  0  0  0  0
 39 40  2  0  0  0  0
 33 41  1  0  0  0  0
 41 42  2  0  0  0  0
 42 43  1  0  0  0  0
 43 44  2  0  0  0  0
 44 45  1  0  0  0  0
 45 46  1  0  0  0  0
 46 47  1  0  0  0  0
 47 48  1  0  0  0  0
 48 49  1  0  0  0  0
 47 50  2  0  0  0  0
 50 51  1  0  0  0  0
 50 52  1  0  0  0  0
 52 53  1  0  0  0  0
 44 54  1  0  0  0  0
 54 55  2  0  0  0  0
 55 56  1  0  0  0  0
 56 57  1  0  0  0  0
 57 58  1  0  0  0  0
 58 59  1  0  0  0  0
 59 60  1  0  0  0  0
 60 61  1  0  0  0  0
 59 62  2  0  0  0  0
 62 63  1  0  0  0  0
 63 64  1  0  0  0  0
 62 65  1  0  0  0  0
 56 66  2  0  0  0  0
 66 67  1  0  0  0  0
 55 68  1  0  0  0  0
 68 69  2  0  0  0  0
 69 70  1  0  0  0  0
 69 71  1  0  0  0  0
 71 72  1  0  0  0  0
 72 73  1  0  0  0  0
 73 74  2  0  0  0  0
 74 75  1  0  0  0  0
 75 76  1  0  0  0  0
 76 77  2  0  0  0  0
 77 78  1  0  0  0  0
 77 79  1  0  0  0  0
 79 80  2  0  0  0  0
 73 81  1  0  0  0  0
 81 82  1  0  0  0  0
 82 83  1  0  0  0  0
 83 84  2  0  0  0  0
 84 85  1  0  0  0  0
 85 86  1  0  0  0  0
 86 87  2  0  0  0  0
 87 88  1  0  0  0  0
 87 89  1  0  0  0  0
 89 90  2  0  0  0  0
 83 91  1  0  0  0  0
 91 92  1  0  0  0  0
 92 93  1  0  0  0  0
 93 94  2  0  0  0  0
 94 95  1  0  0  0  0
 95 96  1  0  0  0  0
 96 97  2  0  0  0  0
 97 98  1  0  0  0  0
 97 99  1  0  0  0  0
 99100  2  0  0  0  0
 27  1  1  0  0  0  0
 35 31  2  0  0  0  0
 67 41  1  0  0  0  0
 75 71  2  0  0  0  0
 85 81  2  0  0  0  0
 95 91  2  0  0  0  0
 26  3  1  0  0  0  0
 40 34  1  0  0  0  0
 66 43  1  0  0  0  0
 80 74  1  0  0  0  0
 90 84  1  0  0  0  0
100 94  1  0  0  0  0
 12  5  2  0  0  0  0
 30 14  1  0  0  0  0
 52 45  2  0  0  0  0
 70 54  1  0  0  0  0
 23 17  2  0  0  0  0
 63 57  2  0  0  0  0
  1101  1  0  0  0  0
  2102  1  0  0  0  0
  8103  1  0  0  0  0
  8104  1  0  0  0  0
  9105  1  0  0  0  0
  9106  1  0  0  0  0
  9107  1  0  0  0  0
 20108  1  0  0  0  0
 20109  1  0  0  0  0
 21110  1  0  0  0  0
 21111  1  0  0  0  0
 21112  1  0  0  0  0
 28113  1  0  0  0  0
 36114  1  0  0  0  0
 38115  1  0  0  0  0
 38116  1  0  0  0  0
 38117  1  0  0  0  0
 39118  1  0  0  0  0
 40119  1  0  0  0  0
 42120  1  0  0  0  0
 48121  1  0  0  0  0
 48122  1  0  0  0  0
 49123  1  0  0  0  0
 49124  1  0  0  0  0
 49125  1  0  0  0  0
 60126  1  0  0  0  0
 60127  1  0  0  0  0
 61128  1  0  0  0  0
 61129  1  0  0  0  0
 61130  1  0  0  0  0
 68131  1  0  0  0  0
 76132  1  0  0  0  0
 78133  1  0  0  0  0
 78134  1  0  0  0  0
 78135  1  0  0  0  0
 79136  1  0  0  0  0
 80137  1  0  0  0  0
 86138  1  0  0  0  0
 88139  1  0  0  0  0
 88140  1  0  0  0  0
 88141  1  0  0  0  0
 89142  1  0  0  0  0
 90143  1  0  0  0  0
 93144  1  0  0  0  0
 96145  1  0  0  0  0
 98146  1  0  0  0  0
 98147  1  0  0  0  0
 98148  1  0  0  0  0
 99149  1  0  0  0  0
100150  1  0  0  0  0
M  END
