
  xtb     03032217473D
 energy: -198.479239874931 gnorm: 0.000159439886 xtb: 6.4.1 (unknown)
118133  0     0  0            999 V2000
    4.5507   -0.1468   -3.4127 C   0  0  0  0  0  0  0  0  0  0  0  0
    4.3648   -1.8327   -3.2441 S   0  0  0  0  0  0  0  0  0  0  0  0
    3.2567   -1.6647   -1.9162 C   0  0  0  0  0  0  0  0  0  0  0  0
    3.0582   -0.3133   -1.6251 C   0  0  0  0  0  0  0  0  0  0  0  0
    3.8049    0.5522   -2.4915 C   0  0  0  0  0  0  0  0  0  0  0  0
    3.7162    1.9554   -2.3383 C   0  0  0  0  0  0  0  0  0  0  0  0
    2.9431    2.4861   -1.3490 C   0  0  0  0  0  0  0  0  0  0  0  0
    2.7970    3.9675   -1.1790 C   0  0  0  0  0  0  0  0  0  0  0  0
    2.2537    1.6197   -0.4595 C   0  0  0  0  0  0  0  0  0  0  0  0
    2.2946    0.2653   -0.5881 C   0  0  0  0  0  0  0  0  0  0  0  0
    2.6441   -2.8059   -1.3307 C   0  0  0  0  0  0  0  0  0  0  0  0
    0.9967   -2.7350   -0.7835 S   0  0  0  0  0  0  0  0  0  0  0  0
    0.9997   -4.3852   -0.2583 C   0  0  0  0  0  0  0  0  0  0  0  0
    2.2155   -4.9850   -0.5471 C   0  0  0  0  0  0  0  0  0  0  0  0
    3.1584   -4.0903   -1.1490 C   0  0  0  0  0  0  0  0  0  0  0  0
    4.4624   -4.5517   -1.4321 C   0  0  0  0  0  0  0  0  0  0  0  0
    4.8137   -5.8417   -1.1548 C   0  0  0  0  0  0  0  0  0  0  0  0
    6.1891   -6.3577   -1.4430 C   0  0  0  0  0  0  0  0  0  0  0  0
    3.8657   -6.7224   -0.5694 C   0  0  0  0  0  0  0  0  0  0  0  0
    2.6061   -6.3158   -0.2624 C   0  0  0  0  0  0  0  0  0  0  0  0
   -0.1859   -5.0577    0.2496 C   0  0  0  0  0  0  0  0  0  0  0  0
   -0.6869   -6.1151   -0.4447 C   0  0  0  0  0  0  0  0  0  0  0  0
   -2.0981   -6.8380    0.2358 S   0  0  0  0  0  0  0  0  0  0  0  0
   -2.0541   -5.6845    1.5320 C   0  0  0  0  0  0  0  0  0  0  0  0
   -0.9611   -4.7815    1.4356 C   0  0  0  0  0  0  0  0  0  0  0  0
   -0.7820   -3.8603    2.4774 C   0  0  0  0  0  0  0  0  0  0  0  0
    0.4454   -3.0051    2.5578 C   0  0  0  0  0  0  0  0  0  0  0  0
    1.6187   -3.8239    3.0998 C   0  0  0  0  0  0  0  0  0  0  0  0
   -1.7522   -3.8464    3.4908 C   0  0  0  0  0  0  0  0  0  0  0  0
   -2.7944   -4.8075    3.4369 C   0  0  0  0  0  0  0  0  0  0  0  0
   -2.9414   -5.7172    2.5006 N   0  0  0  0  0  0  0  0  0  0  0  0
   -3.8759   -4.7073    4.7918 S   0  0  0  0  0  0  0  0  0  0  0  0
   -2.9608   -3.3783    5.4169 C   0  0  0  0  0  0  0  0  0  0  0  0
   -1.9031   -3.0111    4.6545 C   0  0  0  0  0  0  0  0  0  0  0  0
   -1.0229   -1.8956    5.0372 C   0  0  0  0  0  0  0  0  0  0  0  0
   -0.0133   -2.0881    5.9197 C   0  0  0  0  0  0  0  0  0  0  0  0
    0.9907   -0.7055    6.1872 S   0  0  0  0  0  0  0  0  0  0  0  0
    0.0156    0.2074    5.0792 C   0  0  0  0  0  0  0  0  0  0  0  0
   -1.0692   -0.5396    4.5451 C   0  0  0  0  0  0  0  0  0  0  0  0
   -1.9801    0.1186    3.7053 C   0  0  0  0  0  0  0  0  0  0  0  0
   -3.1851   -0.5860    3.1546 C   0  0  0  0  0  0  0  0  0  0  0  0
   -2.9292   -1.1796    1.7670 C   0  0  0  0  0  0  0  0  0  0  0  0
   -1.7219    1.4692    3.4260 C   0  0  0  0  0  0  0  0  0  0  0  0
   -0.5598    2.0597    3.9927 C   0  0  0  0  0  0  0  0  0  0  0  0
    0.2827    1.4640    4.8050 N   0  0  0  0  0  0  0  0  0  0  0  0
   -0.3608    3.7273    3.5548 S   0  0  0  0  0  0  0  0  0  0  0  0
   -1.8417    3.6601    2.6663 C   0  0  0  0  0  0  0  0  0  0  0  0
   -2.4474    2.4480    2.6549 C   0  0  0  0  0  0  0  0  0  0  0  0
   -3.7604    2.2935    2.0039 C   0  0  0  0  0  0  0  0  0  0  0  0
   -4.8921    2.5328    2.7112 C   0  0  0  0  0  0  0  0  0  0  0  0
   -6.3596    2.3847    1.8100 S   0  0  0  0  0  0  0  0  0  0  0  0
   -5.4380    1.9950    0.3926 C   0  0  0  0  0  0  0  0  0  0  0  0
   -4.0370    1.9856    0.6249 C   0  0  0  0  0  0  0  0  0  0  0  0
   -3.1843    1.6847   -0.4487 C   0  0  0  0  0  0  0  0  0  0  0  0
   -1.6947    1.7258   -0.2648 C   0  0  0  0  0  0  0  0  0  0  0  0
   -1.1400    3.1187   -0.5745 C   0  0  0  0  0  0  0  0  0  0  0  0
   -3.7942    1.3863   -1.6765 C   0  0  0  0  0  0  0  0  0  0  0  0
   -5.2143    1.4345   -1.7468 C   0  0  0  0  0  0  0  0  0  0  0  0
   -6.0211    1.7376   -0.7561 N   0  0  0  0  0  0  0  0  0  0  0  0
   -5.8324    1.0271   -3.3158 S   0  0  0  0  0  0  0  0  0  0  0  0
   -4.2175    0.7659   -3.8742 C   0  0  0  0  0  0  0  0  0  0  0  0
   -3.2521    0.9953   -2.9522 C   0  0  0  0  0  0  0  0  0  0  0  0
   -1.8326    0.7782   -3.2694 C   0  0  0  0  0  0  0  0  0  0  0  0
   -1.2397   -0.4182   -3.0371 C   0  0  0  0  0  0  0  0  0  0  0  0
    0.4471   -0.4684   -3.4063 S   0  0  0  0  0  0  0  0  0  0  0  0
    0.3965    1.2028   -3.8691 C   0  0  0  0  0  0  0  0  0  0  0  0
   -0.9167    1.7469   -3.8069 C   0  0  0  0  0  0  0  0  0  0  0  0
   -1.1105    3.0504   -4.2828 C   0  0  0  0  0  0  0  0  0  0  0  0
   -2.4614    3.6721   -4.5015 C   0  0  0  0  0  0  0  0  0  0  0  0
   -2.9371    4.5450   -3.3385 C   0  0  0  0  0  0  0  0  0  0  0  0
    0.0429    3.7597   -4.6370 C   0  0  0  0  0  0  0  0  0  0  0  0
    1.2983    3.1027   -4.5805 C   0  0  0  0  0  0  0  0  0  0  0  0
    1.4779    1.8420   -4.2547 N   0  0  0  0  0  0  0  0  0  0  0  0
    2.6012    4.1429   -5.0612 S   0  0  0  0  0  0  0  0  0  0  0  0
    1.4760    5.4356   -5.3334 C   0  0  0  0  0  0  0  0  0  0  0  0
    0.1922    5.1064   -5.0885 C   0  0  0  0  0  0  0  0  0  0  0  0
    5.1921    0.2435   -4.1767 H   0  0  0  0  0  0  0  0  0  0  0  0
    4.2667    2.5876   -3.0186 H   0  0  0  0  0  0  0  0  0  0  0  0
    2.9379    4.2527   -0.1375 H   0  0  0  0  0  0  0  0  0  0  0  0
    1.7960    4.2821   -1.4792 H   0  0  0  0  0  0  0  0  0  0  0  0
    3.5190    4.5004   -1.7925 H   0  0  0  0  0  0  0  0  0  0  0  0
    1.6923    2.0588    0.3530 H   0  0  0  0  0  0  0  0  0  0  0  0
    1.7592   -0.3672    0.1041 H   0  0  0  0  0  0  0  0  0  0  0  0
    5.1817   -3.8713   -1.8614 H   0  0  0  0  0  0  0  0  0  0  0  0
    6.6590   -6.7152   -0.5271 H   0  0  0  0  0  0  0  0  0  0  0  0
    6.1397   -7.1950   -2.1386 H   0  0  0  0  0  0  0  0  0  0  0  0
    6.8138   -5.5811   -1.8762 H   0  0  0  0  0  0  0  0  0  0  0  0
    4.1726   -7.7364   -0.3574 H   0  0  0  0  0  0  0  0  0  0  0  0
    1.8957   -6.9850    0.2001 H   0  0  0  0  0  0  0  0  0  0  0  0
   -0.2941   -6.5101   -1.3619 H   0  0  0  0  0  0  0  0  0  0  0  0
    0.2708   -2.1541    3.2098 H   0  0  0  0  0  0  0  0  0  0  0  0
    0.6999   -2.6198    1.5739 H   0  0  0  0  0  0  0  0  0  0  0  0
    1.8381   -4.6627    2.4431 H   0  0  0  0  0  0  0  0  0  0  0  0
    2.5054   -3.1990    3.1710 H   0  0  0  0  0  0  0  0  0  0  0  0
    1.3855   -4.2100    4.0900 H   0  0  0  0  0  0  0  0  0  0  0  0
   -3.2786   -2.9151    6.3314 H   0  0  0  0  0  0  0  0  0  0  0  0
    0.2217   -3.0043    6.4260 H   0  0  0  0  0  0  0  0  0  0  0  0
   -4.0174    0.1145    3.0923 H   0  0  0  0  0  0  0  0  0  0  0  0
   -3.4702   -1.3863    3.8356 H   0  0  0  0  0  0  0  0  0  0  0  0
   -3.7808   -1.7854    1.4660 H   0  0  0  0  0  0  0  0  0  0  0  0
   -2.0435   -1.8084    1.7701 H   0  0  0  0  0  0  0  0  0  0  0  0
   -2.7889   -0.3977    1.0279 H   0  0  0  0  0  0  0  0  0  0  0  0
   -2.1987    4.5546    2.1935 H   0  0  0  0  0  0  0  0  0  0  0  0
   -4.9473    2.7889    3.7521 H   0  0  0  0  0  0  0  0  0  0  0  0
   -1.2085    0.9921   -0.9058 H   0  0  0  0  0  0  0  0  0  0  0  0
   -1.4568    1.4776    0.7692 H   0  0  0  0  0  0  0  0  0  0  0  0
   -1.7583    3.8887   -0.1190 H   0  0  0  0  0  0  0  0  0  0  0  0
   -1.1033    3.2889   -1.6457 H   0  0  0  0  0  0  0  0  0  0  0  0
   -0.1322    3.2106   -0.1815 H   0  0  0  0  0  0  0  0  0  0  0  0
   -4.0655    0.4461   -4.8877 H   0  0  0  0  0  0  0  0  0  0  0  0
   -1.7076   -1.2959   -2.6338 H   0  0  0  0  0  0  0  0  0  0  0  0
   -2.4025    4.2886   -5.4011 H   0  0  0  0  0  0  0  0  0  0  0  0
   -3.1970    2.8893   -4.6815 H   0  0  0  0  0  0  0  0  0  0  0  0
   -3.8416    5.0757   -3.6263 H   0  0  0  0  0  0  0  0  0  0  0  0
   -2.1782    5.2756   -3.0661 H   0  0  0  0  0  0  0  0  0  0  0  0
   -3.1651    3.9371   -2.4674 H   0  0  0  0  0  0  0  0  0  0  0  0
    1.8563    6.3811   -5.6676 H   0  0  0  0  0  0  0  0  0  0  0  0
   -0.6253    5.7949   -5.2030 H   0  0  0  0  0  0  0  0  0  0  0  0
  1  2  1  0  0  0  0
  2  3  1  0  0  0  0
  3  4  2  0  0  0  0
  4  5  1  0  0  0  0
  5  6  1  0  0  0  0
  6  7  2  0  0  0  0
  7  8  1  0  0  0  0
  7  9  1  0  0  0  0
  9 10  2  0  0  0  0
  3 11  1  0  0  0  0
 11 12  1  0  0  0  0
 12 13  1  0  0  0  0
 13 14  2  0  0  0  0
 14 15  1  0  0  0  0
 15 16  1  0  0  0  0
 16 17  2  0  0  0  0
 17 18  1  0  0  0  0
 17 19  1  0  0  0  0
 19 20  2  0  0  0  0
 13 21  1  0  0  0  0
 21 22  2  0  0  0  0
 22 23  1  0  0  0  0
 23 24  1  0  0  0  0
 24 25  2  0  0  0  0
 25 26  1  0  0  0  0
 26 27  1  0  0  0  0
 27 28  1  0  0  0  0
 26 29  2  0  0  0  0
 29 30  1  0  0  0  0
 30 31  2  0  0  0  0
 30 32  1  0  0  0  0
 32 33  1  0  0  0  0
 33 34  2  0  0  0  0
 34 35  1  0  0  0  0
 35 36  2  0  0  0  0
 36 37  1  0  0  0  0
 37 38  1  0  0  0  0
 38 39  2  0  0  0  0
 39 40  1  0  0  0  0
 40 41  1  0  0  0  0
 41 42  1  0  0  0  0
 40 43  2  0  0  0  0
 43 44  1  0  0  0  0
 44 45  2  0  0  0  0
 44 46  1  0  0  0  0
 46 47  1  0  0  0  0
 47 48  2  0  0  0  0
 48 49  1  0  0  0  0
 49 50  2  0  0  0  0
 50 51  1  0  0  0  0
 51 52  1  0  0  0  0
 52 53  2  0  0  0  0
 53 54  1  0  0  0  0
 54 55  1  0  0  0  0
 55 56  1  0  0  0  0
 54 57  2  0  0  0  0
 57 58  1  0  0  0  0
 58 59  2  0  0  0  0
 58 60  1  0  0  0  0
 60 61  1  0  0  0  0
 61 62  2  0  0  0  0
 62 63  1  0  0  0  0
 63 64  2  0  0  0  0
 64 65  1  0  0  0  0
 65 66  1  0  0  0  0
 66 67  2  0  0  0  0
 67 68  1  0  0  0  0
 68 69  1  0  0  0  0
 69 70  1  0  0  0  0
 68 71  2  0  0  0  0
 71 72  1  0  0  0  0
 72 73  2  0  0  0  0
 72 74  1  0  0  0  0
 74 75  1  0  0  0  0
 75 76  2  0  0  0  0
  5  1  2  0  0  0  0
 15 11  2  0  0  0  0
 25 21  1  0  0  0  0
 34 29  1  0  0  0  0
 39 35  1  0  0  0  0
 48 43  1  0  0  0  0
 53 49  1  0  0  0  0
 62 57  1  0  0  0  0
 67 63  1  0  0  0  0
 76 71  1  0  0  0  0
 10  4  1  0  0  0  0
 20 14  1  0  0  0  0
 31 24  1  0  0  0  0
 45 38  1  0  0  0  0
 59 52  1  0  0  0  0
 73 66  1  0  0  0  0
  1 77  1  0  0  0  0
  6 78  1  0  0  0  0
  8 79  1  0  0  0  0
  8 80  1  0  0  0  0
  8 81  1  0  0  0  0
  9 82  1  0  0  0  0
 10 83  1  0  0  0  0
 16 84  1  0  0  0  0
 18 85  1  0  0  0  0
 18 86  1  0  0  0  0
 18 87  1  0  0  0  0
 19 88  1  0  0  0  0
 20 89  1  0  0  0  0
 22 90  1  0  0  0  0
 27 91  1  0  0  0  0
 27 92  1  0  0  0  0
 28 93  1  0  0  0  0
 28 94  1  0  0  0  0
 28 95  1  0  0  0  0
 33 96  1  0  0  0  0
 36 97  1  0  0  0  0
 41 98  1  0  0  0  0
 41 99  1  0  0  0  0
 42100  1  0  0  0  0
 42101  1  0  0  0  0
 42102  1  0  0  0  0
 47103  1  0  0  0  0
 50104  1  0  0  0  0
 55105  1  0  0  0  0
 55106  1  0  0  0  0
 56107  1  0  0  0  0
 56108  1  0  0  0  0
 56109  1  0  0  0  0
 61110  1  0  0  0  0
 64111  1  0  0  0  0
 69112  1  0  0  0  0
 69113  1  0  0  0  0
 70114  1  0  0  0  0
 70115  1  0  0  0  0
 70116  1  0  0  0  0
 75117  1  0  0  0  0
 76118  1  0  0  0  0
M  END
