110

C          0.54740        7.37490        3.36240
S          0.31370        5.68290        3.42390
C         -1.39020        5.79300        3.00700
C         -1.72000        7.12340        2.84100
S         -3.15610        7.98750        2.36020
C         -2.30440        9.51460        2.44480
C         -3.07550       10.72350        2.13650
O         -4.24870       10.70550        1.85070
O         -2.33150       11.82530        2.21490
C         -2.99610       13.05790        1.93520
C         -1.99960       14.18510        2.12310
C         -1.00110        9.36920        2.81330
C         -0.62000        8.01630        3.03840
F         -0.13900       10.37640        2.95700
C         -2.11860        4.58040        2.86050
S         -1.22210        3.13810        2.50650
C         -2.63960        2.14120        2.49750
C         -3.78380        2.91930        2.71070
C         -3.48790        4.29890        2.94950
C         -4.54150        5.18090        3.26120
C         -5.83960        4.75020        3.23530
C         -6.97220        5.67530        3.54890
C         -6.12450        3.40870        2.88300
C         -5.13210        2.50920        2.63260
C         -2.51070        0.74390        2.29340
S         -1.30310        0.14360        1.20520
C         -1.69880       -1.51260        1.54160
C         -2.77120       -1.59340        2.44060
C         -3.20910       -0.31370        2.89690
C         -4.18930       -0.24010        3.90710
C         -4.80040       -1.37950        4.35710
C         -5.83740       -1.33430        5.43530
C         -4.46080       -2.62810        3.78450
C         -3.46770       -2.74490        2.85780
C         -0.95870       -2.55130        0.93460
S         -0.37970       -2.38230       -0.69900
C          0.36980       -3.96520       -0.71050
C          0.17520       -4.56370        0.52560
S          0.71570       -6.07070        1.18970
C          0.02010       -5.64670        2.73810
C          0.19130       -6.60560        3.83120
O          0.79760       -7.64350        3.71150
O         -0.40280       -6.20330        4.95580
C         -0.28080       -7.07900        6.07700
C         -1.08860       -6.49950        7.22200
C         -0.59510       -4.42460        2.72340
C         -0.56030       -3.78460        1.45740
F         -1.12560       -3.86510        3.81150
C          1.09360       -4.47980       -1.80410
S          1.99680       -5.95850       -1.60340
C          2.62900       -5.91370       -3.23480
C          2.12270       -4.81270       -3.89320
S          2.22040       -4.28570       -5.54280
C          1.12650       -2.97180       -5.20070
C          0.75160       -2.05860       -6.28330
O          0.00450       -1.12010       -6.17740
O          1.37080       -2.42330       -7.41510
C          1.10340       -1.64430       -8.57920
C         -0.18110       -2.09170       -9.26260
C          0.71690       -2.95030       -3.89540
C          1.25490       -4.00010       -3.10760
F         -0.13390       -2.04010       -3.42310
C          3.48870       -6.94310       -3.70380
S          3.25750       -8.59130       -3.18890
C          4.53580       -9.17830       -4.18170
C          5.11940       -8.15920       -4.86670
S          6.46110       -8.06930       -5.97410
C          6.31630       -6.32410       -6.02200
C          7.26310       -5.54950       -6.82640
O          7.26390       -4.35020       -6.93660
O          8.12520       -6.37520       -7.43940
C          9.12700       -5.76900       -8.25380
C         10.30830       -5.29300       -7.42040
C          5.28780       -5.85490       -5.25300
C          4.54900       -6.87440       -4.59740
F          5.03830       -4.55940       -5.08270
H          1.51000        7.80230        3.55510
H         -3.85150       13.15870        2.61310
H         -3.37920       13.02600        0.90880
H         -2.48130       15.13650        1.91770
H         -1.15870       14.05590        1.44730
H         -1.62530       14.18570        3.14310
H         -4.31680        6.20190        3.51730
H         -7.51850        5.32220        4.42320
H         -6.61060        6.68110        3.74300
H         -7.67060        5.71080        2.71410
H         -7.15800        3.10180        2.81600
H         -5.36200        1.49290        2.35330
H         -4.44400        0.72020        4.32790
H         -6.76050       -1.80180        5.09430
H         -6.05010       -0.30990        5.72990
H         -5.49130       -1.88410        6.31030
H         -4.99840       -3.50650        4.10930
H         -3.21980       -3.70390        2.43140
H         -0.64330       -8.07280        5.78980
H          0.77960       -7.16850        6.33950
H         -2.13380       -6.41600        6.93740
H         -0.71960       -5.50920        7.47410
H         -1.00470       -7.14550        8.09090
H          1.03170       -0.59030       -8.29020
H          1.97020       -1.79740       -9.22540
H         -0.12980       -3.15120       -9.50240
H         -0.32200       -1.52590      -10.17900
H         -1.03060       -1.91720       -8.60670
H          4.77440      -10.22130       -4.19160
H          8.68110       -4.92680       -8.79360
H          9.42720       -6.54820       -8.95720
H          9.98770       -4.51160       -6.73550
H         10.72140       -6.11970       -6.84730
H         11.07760       -4.89320       -8.07470
