
  xtb     03032208063D
 energy: -401.579733204391 gnorm: 0.000678323975 xtb: 6.4.1 (unknown)
234257  0     0  0            999 V2000
   -5.8745   -6.4213   18.2937 C   0  0  0  0  0  0  0  0  0  0  0  0
   -5.7229   -7.5052   16.9884 S   0  0  0  0  0  0  0  0  0  0  0  0
   -5.9514   -6.2531   15.7998 C   0  0  0  0  0  0  0  0  0  0  0  0
   -6.1509   -5.0204   16.4426 C   0  0  0  0  0  0  0  0  0  0  0  0
   -6.1022   -5.1297   17.8721 C   0  0  0  0  0  0  0  0  0  0  0  0
   -6.2766   -3.9836   18.6831 C   0  0  0  0  0  0  0  0  0  0  0  0
   -6.5101   -2.7687   18.1086 C   0  0  0  0  0  0  0  0  0  0  0  0
   -6.6854   -1.5270   18.9267 C   0  0  0  0  0  0  0  0  0  0  0  0
   -6.5977   -2.6748   16.6962 C   0  0  0  0  0  0  0  0  0  0  0  0
   -6.4264   -3.7552   15.8829 C   0  0  0  0  0  0  0  0  0  0  0  0
   -5.8441   -6.5321   14.4160 C   0  0  0  0  0  0  0  0  0  0  0  0
   -5.4714   -5.2580   13.2998 S   0  0  0  0  0  0  0  0  0  0  0  0
   -5.4006   -6.3240   11.9305 C   0  0  0  0  0  0  0  0  0  0  0  0
   -5.6701   -7.6376   12.3278 C   0  0  0  0  0  0  0  0  0  0  0  0
   -5.9245   -7.7582   13.7311 C   0  0  0  0  0  0  0  0  0  0  0  0
   -6.2525   -9.0214   14.2616 C   0  0  0  0  0  0  0  0  0  0  0  0
   -6.2915  -10.1281   13.4574 C   0  0  0  0  0  0  0  0  0  0  0  0
   -6.6356  -11.4781   14.0042 C   0  0  0  0  0  0  0  0  0  0  0  0
   -6.0040   -9.9998   12.0789 C   0  0  0  0  0  0  0  0  0  0  0  0
   -5.7106   -8.7924   11.5196 C   0  0  0  0  0  0  0  0  0  0  0  0
   -5.1016   -5.7505   10.6707 C   0  0  0  0  0  0  0  0  0  0  0  0
   -4.8555   -4.4184   10.4569 C   0  0  0  0  0  0  0  0  0  0  0  0
   -4.5760   -4.0827    9.1159 C   0  0  0  0  0  0  0  0  0  0  0  0
   -4.2442   -2.8157    8.5994 C   0  0  0  0  0  0  0  0  0  0  0  0
   -4.2629   -1.6372    9.4727 C   0  0  0  0  0  0  0  0  0  0  0  0
   -3.1781   -0.7666    9.5519 C   0  0  0  0  0  0  0  0  0  0  0  0
   -3.1859    0.2827   10.4465 C   0  0  0  0  0  0  0  0  0  0  0  0
   -4.2774    0.5182   11.2797 C   0  0  0  0  0  0  0  0  0  0  0  0
   -4.1758    1.8775   12.4071 S   0  0  0  0  0  0  0  0  0  0  0  0
   -4.9429    1.2262   13.9393 C   0  0  0  0  0  0  0  0  0  0  0  0
   -4.2817   -0.0520   14.4151 C   0  0  0  0  0  0  0  0  0  0  0  0
   -5.3817   -0.3165   11.1387 C   0  0  0  0  0  0  0  0  0  0  0  0
   -6.5048   -0.1101   11.8635 F   0  0  0  0  0  0  0  0  0  0  0  0
   -5.3771   -1.3863   10.2689 C   0  0  0  0  0  0  0  0  0  0  0  0
   -3.9064   -2.7622    7.2575 C   0  0  0  0  0  0  0  0  0  0  0  0
   -3.9224   -3.9048    6.4193 C   0  0  0  0  0  0  0  0  0  0  0  0
   -4.2626   -5.1699    6.9323 C   0  0  0  0  0  0  0  0  0  0  0  0
   -4.2454   -6.3482    6.0571 C   0  0  0  0  0  0  0  0  0  0  0  0
   -5.3422   -7.2014    5.9588 C   0  0  0  0  0  0  0  0  0  0  0  0
   -5.3369   -8.2473    5.0608 C   0  0  0  0  0  0  0  0  0  0  0  0
   -4.2360   -8.5016    4.2434 C   0  0  0  0  0  0  0  0  0  0  0  0
   -4.3581   -9.8698    3.1313 S   0  0  0  0  0  0  0  0  0  0  0  0
   -3.4181   -9.3572    1.6437 C   0  0  0  0  0  0  0  0  0  0  0  0
   -3.9356   -8.0671    1.0403 C   0  0  0  0  0  0  0  0  0  0  0  0
   -3.1212   -7.6846    4.4054 C   0  0  0  0  0  0  0  0  0  0  0  0
   -3.1238   -6.6161    5.2777 C   0  0  0  0  0  0  0  0  0  0  0  0
   -1.9861   -7.9067    3.7040 F   0  0  0  0  0  0  0  0  0  0  0  0
   -4.5912   -5.2236    8.2743 C   0  0  0  0  0  0  0  0  0  0  0  0
   -4.9935   -6.6650    9.1741 S   0  0  0  0  0  0  0  0  0  0  0  0
   -3.5971   -3.5799    5.0829 C   0  0  0  0  0  0  0  0  0  0  0  0
   -3.3110   -2.2612    4.8877 C   0  0  0  0  0  0  0  0  0  0  0  0
   -3.4584   -1.3276    6.3644 S   0  0  0  0  0  0  0  0  0  0  0  0
   -2.8811   -1.6811    3.6598 C   0  0  0  0  0  0  0  0  0  0  0  0
   -2.5305   -0.3949    3.3775 C   0  0  0  0  0  0  0  0  0  0  0  0
   -2.0660   -0.2139    2.0476 C   0  0  0  0  0  0  0  0  0  0  0  0
   -1.5761    0.9537    1.4393 C   0  0  0  0  0  0  0  0  0  0  0  0
   -1.4903    2.2224    2.1733 C   0  0  0  0  0  0  0  0  0  0  0  0
   -0.8607    2.2949    3.4150 C   0  0  0  0  0  0  0  0  0  0  0  0
   -0.8039    3.4871    4.1036 C   0  0  0  0  0  0  0  0  0  0  0  0
   -1.3641    4.6534    3.5848 C   0  0  0  0  0  0  0  0  0  0  0  0
   -1.2007    6.1251    4.5515 S   0  0  0  0  0  0  0  0  0  0  0  0
   -2.8010    6.9875    4.3326 C   0  0  0  0  0  0  0  0  0  0  0  0
   -3.9731    6.1282    4.7622 C   0  0  0  0  0  0  0  0  0  0  0  0
   -1.9551    4.5738    2.3276 C   0  0  0  0  0  0  0  0  0  0  0  0
   -2.4868    5.6679    1.7402 F   0  0  0  0  0  0  0  0  0  0  0  0
   -2.0315    3.3836    1.6328 C   0  0  0  0  0  0  0  0  0  0  0  0
   -1.1541    0.8424    0.1220 C   0  0  0  0  0  0  0  0  0  0  0  0
   -1.1912   -0.3712   -0.6113 C   0  0  0  0  0  0  0  0  0  0  0  0
   -1.6911   -1.5351   -0.0082 C   0  0  0  0  0  0  0  0  0  0  0  0
   -1.7264   -2.8431   -0.6753 C   0  0  0  0  0  0  0  0  0  0  0  0
   -2.9003   -3.5955   -0.6898 C   0  0  0  0  0  0  0  0  0  0  0  0
   -2.9101   -4.8713   -1.2081 C   0  0  0  0  0  0  0  0  0  0  0  0
   -1.7572   -5.4490   -1.7379 C   0  0  0  0  0  0  0  0  0  0  0  0
   -1.9075   -7.0999   -2.3532 S   0  0  0  0  0  0  0  0  0  0  0  0
   -0.3013   -7.8895   -1.9682 C   0  0  0  0  0  0  0  0  0  0  0  0
    0.0143   -7.8527   -0.4867 C   0  0  0  0  0  0  0  0  0  0  0  0
   -0.6069   -4.6660   -1.7684 C   0  0  0  0  0  0  0  0  0  0  0  0
   -0.5793   -3.3909   -1.2373 C   0  0  0  0  0  0  0  0  0  0  0  0
    0.5402   -5.1329   -2.3052 F   0  0  0  0  0  0  0  0  0  0  0  0
   -2.1178   -1.4188    1.3045 C   0  0  0  0  0  0  0  0  0  0  0  0
   -2.6962   -2.7433    2.2749 S   0  0  0  0  0  0  0  0  0  0  0  0
   -0.6665   -0.2195   -1.9181 C   0  0  0  0  0  0  0  0  0  0  0  0
   -0.2055    1.0390   -2.1770 C   0  0  0  0  0  0  0  0  0  0  0  0
   -0.4364    2.1220   -0.8200 S   0  0  0  0  0  0  0  0  0  0  0  0
    0.4489    1.4955   -3.3624 C   0  0  0  0  0  0  0  0  0  0  0  0
    0.6097    0.8166   -4.5357 C   0  0  0  0  0  0  0  0  0  0  0  0
    1.3843    1.5145   -5.4956 C   0  0  0  0  0  0  0  0  0  0  0  0
    1.7368    1.0997   -6.7925 C   0  0  0  0  0  0  0  0  0  0  0  0
    1.3734   -0.2251   -7.3077 C   0  0  0  0  0  0  0  0  0  0  0  0
    0.8081   -0.3756   -8.5700 C   0  0  0  0  0  0  0  0  0  0  0  0
    0.4877   -1.6234   -9.0700 C   0  0  0  0  0  0  0  0  0  0  0  0
    0.7217   -2.7717   -8.3224 C   0  0  0  0  0  0  0  0  0  0  0  0
    0.3913   -4.4248   -8.8256 S   0  0  0  0  0  0  0  0  0  0  0  0
   -0.4277   -4.2581  -10.4477 C   0  0  0  0  0  0  0  0  0  0  0  0
   -1.8807   -3.8378  -10.3239 C   0  0  0  0  0  0  0  0  0  0  0  0
    1.2945   -2.6059   -7.0586 C   0  0  0  0  0  0  0  0  0  0  0  0
    1.5454   -3.6975   -6.3085 F   0  0  0  0  0  0  0  0  0  0  0  0
    1.6196   -1.3700   -6.5501 C   0  0  0  0  0  0  0  0  0  0  0  0
    2.4864    1.9905   -7.5464 C   0  0  0  0  0  0  0  0  0  0  0  0
    2.9077    3.2512   -7.0574 C   0  0  0  0  0  0  0  0  0  0  0  0
    2.5463    3.6711   -5.7675 C   0  0  0  0  0  0  0  0  0  0  0  0
    2.9704    4.9864   -5.2711 C   0  0  0  0  0  0  0  0  0  0  0  0
    2.7171    6.1361   -6.0179 C   0  0  0  0  0  0  0  0  0  0  0  0
    3.1672    7.3660   -5.5876 C   0  0  0  0  0  0  0  0  0  0  0  0
    3.8861    7.4944   -4.4029 C   0  0  0  0  0  0  0  0  0  0  0  0
    4.4400    9.1104   -3.9300 S   0  0  0  0  0  0  0  0  0  0  0  0
    6.2103    8.8167   -3.5609 C   0  0  0  0  0  0  0  0  0  0  0  0
    6.9580    8.2989   -4.7736 C   0  0  0  0  0  0  0  0  0  0  0  0
    4.0914    6.3464   -3.6443 C   0  0  0  0  0  0  0  0  0  0  0  0
    3.6519    5.1072   -4.0651 C   0  0  0  0  0  0  0  0  0  0  0  0
    4.7479    6.4114   -2.4673 F   0  0  0  0  0  0  0  0  0  0  0  0
    1.7986    2.7825   -5.0127 C   0  0  0  0  0  0  0  0  0  0  0  0
    1.2283    3.0633   -3.3907 S   0  0  0  0  0  0  0  0  0  0  0  0
    3.7558    3.9189   -7.9745 C   0  0  0  0  0  0  0  0  0  0  0  0
    3.9722    3.2235   -9.1257 C   0  0  0  0  0  0  0  0  0  0  0  0
    3.1181    1.6926   -9.1479 S   0  0  0  0  0  0  0  0  0  0  0  0
    4.8153    3.6126  -10.2079 C   0  0  0  0  0  0  0  0  0  0  0  0
    5.0179    2.9870  -11.4001 C   0  0  0  0  0  0  0  0  0  0  0  0
    5.9750    3.6345  -12.2258 C   0  0  0  0  0  0  0  0  0  0  0  0
    6.3947    3.2757  -13.5165 C   0  0  0  0  0  0  0  0  0  0  0  0
    5.8946    2.0681  -14.1830 C   0  0  0  0  0  0  0  0  0  0  0  0
    5.4003    2.1238  -15.4828 C   0  0  0  0  0  0  0  0  0  0  0  0
    4.9420    0.9894  -16.1232 C   0  0  0  0  0  0  0  0  0  0  0  0
    4.9742   -0.2477  -15.4903 C   0  0  0  0  0  0  0  0  0  0  0  0
    4.4136   -1.7631  -16.1939 S   0  0  0  0  0  0  0  0  0  0  0  0
    4.4280   -1.4419  -17.9917 C   0  0  0  0  0  0  0  0  0  0  0  0
    5.8329   -1.2502  -18.5297 C   0  0  0  0  0  0  0  0  0  0  0  0
    5.4623   -0.2878  -14.1830 C   0  0  0  0  0  0  0  0  0  0  0  0
    5.4997   -1.4682  -13.5334 F   0  0  0  0  0  0  0  0  0  0  0  0
    5.9157    0.8365  -13.5307 C   0  0  0  0  0  0  0  0  0  0  0  0
    7.3176    4.1154  -14.1260 C   0  0  0  0  0  0  0  0  0  0  0  0
    7.8441    5.2744  -13.5073 C   0  0  0  0  0  0  0  0  0  0  0  0
    7.4200    5.6380  -12.2212 C   0  0  0  0  0  0  0  0  0  0  0  0
    7.9072    6.8493  -11.5497 C   0  0  0  0  0  0  0  0  0  0  0  0
    7.8718    8.0903  -12.1847 C   0  0  0  0  0  0  0  0  0  0  0  0
    8.3056    9.2239  -11.5338 C   0  0  0  0  0  0  0  0  0  0  0  0
    8.7851    9.1769  -10.2232 C   0  0  0  0  0  0  0  0  0  0  0  0
    9.2611   10.7157   -9.5053 S   0  0  0  0  0  0  0  0  0  0  0  0
   10.4800   10.2760   -8.2024 C   0  0  0  0  0  0  0  0  0  0  0  0
   11.2928   11.5102   -7.8639 C   0  0  0  0  0  0  0  0  0  0  0  0
    8.7940    7.9350   -9.5958 C   0  0  0  0  0  0  0  0  0  0  0  0
    8.3780    6.7891  -10.2428 C   0  0  0  0  0  0  0  0  0  0  0  0
    9.2071    7.8002   -8.3141 F   0  0  0  0  0  0  0  0  0  0  0  0
    6.4971    4.7999  -11.6123 C   0  0  0  0  0  0  0  0  0  0  0  0
    5.7935    5.0587  -10.0388 S   0  0  0  0  0  0  0  0  0  0  0  0
    8.8279    5.9070  -14.3250 C   0  0  0  0  0  0  0  0  0  0  0  0
    9.0252    5.2704  -15.4965 C   0  0  0  0  0  0  0  0  0  0  0  0
    8.0376    3.8634  -15.6967 S   0  0  0  0  0  0  0  0  0  0  0  0
   -5.7925   -6.7848   19.2983 H   0  0  0  0  0  0  0  0  0  0  0  0
   -6.2246   -4.0948   19.7562 H   0  0  0  0  0  0  0  0  0  0  0  0
   -7.6143   -1.0244   18.6611 H   0  0  0  0  0  0  0  0  0  0  0  0
   -5.8661   -0.8335   18.7362 H   0  0  0  0  0  0  0  0  0  0  0  0
   -6.7022   -1.7580   19.9887 H   0  0  0  0  0  0  0  0  0  0  0  0
   -6.8190   -1.7111   16.2606 H   0  0  0  0  0  0  0  0  0  0  0  0
   -6.5209   -3.6425   14.8152 H   0  0  0  0  0  0  0  0  0  0  0  0
   -6.4890   -9.1159   15.3092 H   0  0  0  0  0  0  0  0  0  0  0  0
   -5.8076  -12.1689   13.8483 H   0  0  0  0  0  0  0  0  0  0  0  0
   -7.5064  -11.8840   13.4906 H   0  0  0  0  0  0  0  0  0  0  0  0
   -6.8497  -11.4256   15.0684 H   0  0  0  0  0  0  0  0  0  0  0  0
   -6.0329  -10.8852   11.4608 H   0  0  0  0  0  0  0  0  0  0  0  0
   -5.5108   -8.7128   10.4632 H   0  0  0  0  0  0  0  0  0  0  0  0
   -4.8485   -3.7037   11.2602 H   0  0  0  0  0  0  0  0  0  0  0  0
   -2.3084   -0.9379    8.9369 H   0  0  0  0  0  0  0  0  0  0  0  0
   -2.3323    0.9375   10.5271 H   0  0  0  0  0  0  0  0  0  0  0  0
   -4.7911    2.0362   14.6529 H   0  0  0  0  0  0  0  0  0  0  0  0
   -6.0101    1.0962   13.7727 H   0  0  0  0  0  0  0  0  0  0  0  0
   -4.6959   -0.3455   15.3777 H   0  0  0  0  0  0  0  0  0  0  0  0
   -3.2089    0.0911   14.5266 H   0  0  0  0  0  0  0  0  0  0  0  0
   -4.4497   -0.8650   13.7113 H   0  0  0  0  0  0  0  0  0  0  0  0
   -6.2593   -2.0040   10.1998 H   0  0  0  0  0  0  0  0  0  0  0  0
   -6.2172   -7.0195    6.5635 H   0  0  0  0  0  0  0  0  0  0  0  0
   -6.1994   -8.8883    4.9656 H   0  0  0  0  0  0  0  0  0  0  0  0
   -3.5700  -10.1950    0.9627 H   0  0  0  0  0  0  0  0  0  0  0  0
   -2.3625   -9.2963    1.9002 H   0  0  0  0  0  0  0  0  0  0  0  0
   -5.0063   -8.1346    0.8589 H   0  0  0  0  0  0  0  0  0  0  0  0
   -3.7476   -7.2219    1.6996 H   0  0  0  0  0  0  0  0  0  0  0  0
   -3.4338   -7.8802    0.0927 H   0  0  0  0  0  0  0  0  0  0  0  0
   -2.2320   -6.0142    5.3615 H   0  0  0  0  0  0  0  0  0  0  0  0
   -3.5828   -4.2952    4.2803 H   0  0  0  0  0  0  0  0  0  0  0  0
   -2.5999    0.3969    4.1018 H   0  0  0  0  0  0  0  0  0  0  0  0
   -0.4021    1.4121    3.8334 H   0  0  0  0  0  0  0  0  0  0  0  0
   -0.3205    3.5394    5.0668 H   0  0  0  0  0  0  0  0  0  0  0  0
   -2.6999    7.8630    4.9741 H   0  0  0  0  0  0  0  0  0  0  0  0
   -2.8906    7.3141    3.2990 H   0  0  0  0  0  0  0  0  0  0  0  0
   -4.0717    5.2555    4.1194 H   0  0  0  0  0  0  0  0  0  0  0  0
   -3.8432    5.7889    5.7879 H   0  0  0  0  0  0  0  0  0  0  0  0
   -4.8929    6.7064    4.6986 H   0  0  0  0  0  0  0  0  0  0  0  0
   -2.5224    3.3768    0.6720 H   0  0  0  0  0  0  0  0  0  0  0  0
   -3.8099   -3.1756   -0.2892 H   0  0  0  0  0  0  0  0  0  0  0  0
   -3.8177   -5.4545   -1.2029 H   0  0  0  0  0  0  0  0  0  0  0  0
   -0.4417   -8.9135   -2.3151 H   0  0  0  0  0  0  0  0  0  0  0  0
    0.4756   -7.4173   -2.5652 H   0  0  0  0  0  0  0  0  0  0  0  0
    0.9421   -8.3891   -0.2989 H   0  0  0  0  0  0  0  0  0  0  0  0
    0.1348   -6.8291   -0.1380 H   0  0  0  0  0  0  0  0  0  0  0  0
   -0.7822   -8.3199    0.0883 H   0  0  0  0  0  0  0  0  0  0  0  0
    0.3519   -2.8456   -1.2476 H   0  0  0  0  0  0  0  0  0  0  0  0
   -0.6252   -1.0226   -2.6305 H   0  0  0  0  0  0  0  0  0  0  0  0
    0.1724   -0.1471   -4.7194 H   0  0  0  0  0  0  0  0  0  0  0  0
    0.5976    0.4978   -9.1682 H   0  0  0  0  0  0  0  0  0  0  0  0
    0.0571   -1.6893  -10.0554 H   0  0  0  0  0  0  0  0  0  0  0  0
    0.1572   -3.5749  -11.0618 H   0  0  0  0  0  0  0  0  0  0  0  0
   -0.3523   -5.2580  -10.8753 H   0  0  0  0  0  0  0  0  0  0  0  0
   -2.3334   -3.7760  -11.3118 H   0  0  0  0  0  0  0  0  0  0  0  0
   -2.4316   -4.5664   -9.7339 H   0  0  0  0  0  0  0  0  0  0  0  0
   -1.9706   -2.8685   -9.8384 H   0  0  0  0  0  0  0  0  0  0  0  0
    2.0906   -1.3080   -5.5816 H   0  0  0  0  0  0  0  0  0  0  0  0
    2.1597    6.0605   -6.9393 H   0  0  0  0  0  0  0  0  0  0  0  0
    2.9783    8.2537   -6.1711 H   0  0  0  0  0  0  0  0  0  0  0  0
    6.5750    9.7990   -3.2615 H   0  0  0  0  0  0  0  0  0  0  0  0
    6.2846    8.1378   -2.7142 H   0  0  0  0  0  0  0  0  0  0  0  0
    8.0164    8.2012   -4.5404 H   0  0  0  0  0  0  0  0  0  0  0  0
    6.8470    8.9829   -5.6124 H   0  0  0  0  0  0  0  0  0  0  0  0
    6.5817    7.3226   -5.0746 H   0  0  0  0  0  0  0  0  0  0  0  0
    3.8587    4.2445   -3.4512 H   0  0  0  0  0  0  0  0  0  0  0  0
    4.2140    4.8718   -7.7775 H   0  0  0  0  0  0  0  0  0  0  0  0
    4.4849    2.0972  -11.6835 H   0  0  0  0  0  0  0  0  0  0  0  0
    5.3518    3.0723  -15.9953 H   0  0  0  0  0  0  0  0  0  0  0  0
    4.5494    1.0796  -17.1229 H   0  0  0  0  0  0  0  0  0  0  0  0
    3.7811   -0.5912  -18.2028 H   0  0  0  0  0  0  0  0  0  0  0  0
    3.9696   -2.3374  -18.4114 H   0  0  0  0  0  0  0  0  0  0  0  0
    5.7994   -1.1075  -19.6081 H   0  0  0  0  0  0  0  0  0  0  0  0
    6.4400   -2.1261  -18.3132 H   0  0  0  0  0  0  0  0  0  0  0  0
    6.3096   -0.3821  -18.0788 H   0  0  0  0  0  0  0  0  0  0  0  0
    6.3103    0.7405  -12.5313 H   0  0  0  0  0  0  0  0  0  0  0  0
    7.4832    8.1655  -13.1888 H   0  0  0  0  0  0  0  0  0  0  0  0
    8.2756   10.1824  -12.0287 H   0  0  0  0  0  0  0  0  0  0  0  0
    9.9375    9.9117   -7.3314 H   0  0  0  0  0  0  0  0  0  0  0  0
   11.1128    9.4853   -8.6022 H   0  0  0  0  0  0  0  0  0  0  0  0
   10.6460   12.3046   -7.4983 H   0  0  0  0  0  0  0  0  0  0  0  0
   12.0198   11.2689   -7.0914 H   0  0  0  0  0  0  0  0  0  0  0  0
   11.8218   11.8732   -8.7421 H   0  0  0  0  0  0  0  0  0  0  0  0
    8.4310    5.8525   -9.7103 H   0  0  0  0  0  0  0  0  0  0  0  0
    9.3666    6.7874  -14.0249 H   0  0  0  0  0  0  0  0  0  0  0  0
    9.7028    5.5342  -16.2849 H   0  0  0  0  0  0  0  0  0  0  0  0
  1  2  1  0  0  0  0
  2  3  1  0  0  0  0
  3  4  2  0  0  0  0
  4  5  1  0  0  0  0
  5  6  1  0  0  0  0
  6  7  2  0  0  0  0
  7  8  1  0  0  0  0
  7  9  1  0  0  0  0
  9 10  2  0  0  0  0
  3 11  1  0  0  0  0
 11 12  1  0  0  0  0
 12 13  1  0  0  0  0
 13 14  2  0  0  0  0
 14 15  1  0  0  0  0
 15 16  1  0  0  0  0
 16 17  2  0  0  0  0
 17 18  1  0  0  0  0
 17 19  1  0  0  0  0
 19 20  2  0  0  0  0
 13 21  1  0  0  0  0
 21 22  2  0  0  0  0
 22 23  1  0  0  0  0
 23 24  2  0  0  0  0
 24 25  1  0  0  0  0
 25 26  2  0  0  0  0
 26 27  1  0  0  0  0
 27 28  2  0  0  0  0
 28 29  1  0  0  0  0
 29 30  1  0  0  0  0
 30 31  1  0  0  0  0
 28 32  1  0  0  0  0
 32 33  1  0  0  0  0
 32 34  2  0  0  0  0
 24 35  1  0  0  0  0
 35 36  2  0  0  0  0
 36 37  1  0  0  0  0
 37 38  1  0  0  0  0
 38 39  2  0  0  0  0
 39 40  1  0  0  0  0
 40 41  2  0  0  0  0
 41 42  1  0  0  0  0
 42 43  1  0  0  0  0
 43 44  1  0  0  0  0
 41 45  1  0  0  0  0
 45 46  2  0  0  0  0
 45 47  1  0  0  0  0
 37 48  2  0  0  0  0
 48 49  1  0  0  0  0
 36 50  1  0  0  0  0
 50 51  2  0  0  0  0
 51 52  1  0  0  0  0
 51 53  1  0  0  0  0
 53 54  2  0  0  0  0
 54 55  1  0  0  0  0
 55 56  2  0  0  0  0
 56 57  1  0  0  0  0
 57 58  2  0  0  0  0
 58 59  1  0  0  0  0
 59 60  2  0  0  0  0
 60 61  1  0  0  0  0
 61 62  1  0  0  0  0
 62 63  1  0  0  0  0
 60 64  1  0  0  0  0
 64 65  1  0  0  0  0
 64 66  2  0  0  0  0
 56 67  1  0  0  0  0
 67 68  2  0  0  0  0
 68 69  1  0  0  0  0
 69 70  1  0  0  0  0
 70 71  2  0  0  0  0
 71 72  1  0  0  0  0
 72 73  2  0  0  0  0
 73 74  1  0  0  0  0
 74 75  1  0  0  0  0
 75 76  1  0  0  0  0
 73 77  1  0  0  0  0
 77 78  2  0  0  0  0
 77 79  1  0  0  0  0
 69 80  2  0  0  0  0
 80 81  1  0  0  0  0
 68 82  1  0  0  0  0
 82 83  2  0  0  0  0
 83 84  1  0  0  0  0
 83 85  1  0  0  0  0
 85 86  2  0  0  0  0
 86 87  1  0  0  0  0
 87 88  2  0  0  0  0
 88 89  1  0  0  0  0
 89 90  2  0  0  0  0
 90 91  1  0  0  0  0
 91 92  2  0  0  0  0
 92 93  1  0  0  0  0
 93 94  1  0  0  0  0
 94 95  1  0  0  0  0
 92 96  1  0  0  0  0
 96 97  1  0  0  0  0
 96 98  2  0  0  0  0
 88 99  1  0  0  0  0
 99100  2  0  0  0  0
100101  1  0  0  0  0
101102  1  0  0  0  0
102103  2  0  0  0  0
103104  1  0  0  0  0
104105  2  0  0  0  0
105106  1  0  0  0  0
106107  1  0  0  0  0
107108  1  0  0  0  0
105109  1  0  0  0  0
109110  2  0  0  0  0
109111  1  0  0  0  0
101112  2  0  0  0  0
112113  1  0  0  0  0
100114  1  0  0  0  0
114115  2  0  0  0  0
115116  1  0  0  0  0
115117  1  0  0  0  0
117118  2  0  0  0  0
118119  1  0  0  0  0
119120  2  0  0  0  0
120121  1  0  0  0  0
121122  2  0  0  0  0
122123  1  0  0  0  0
123124  2  0  0  0  0
124125  1  0  0  0  0
125126  1  0  0  0  0
126127  1  0  0  0  0
124128  1  0  0  0  0
128129  1  0  0  0  0
128130  2  0  0  0  0
120131  1  0  0  0  0
131132  2  0  0  0  0
132133  1  0  0  0  0
133134  1  0  0  0  0
134135  2  0  0  0  0
135136  1  0  0  0  0
136137  2  0  0  0  0
137138  1  0  0  0  0
138139  1  0  0  0  0
139140  1  0  0  0  0
137141  1  0  0  0  0
141142  2  0  0  0  0
141143  1  0  0  0  0
133144  2  0  0  0  0
144145  1  0  0  0  0
132146  1  0  0  0  0
146147  2  0  0  0  0
147148  1  0  0  0  0
  5  1  2  0  0  0  0
 15 11  2  0  0  0  0
 49 21  1  0  0  0  0
 81 53  1  0  0  0  0
113 85  1  0  0  0  0
145117  1  0  0  0  0
 10  4  1  0  0  0  0
 20 14  1  0  0  0  0
 48 23  1  0  0  0  0
 80 55  1  0  0  0  0
112 87  1  0  0  0  0
144119  1  0  0  0  0
 34 25  1  0  0  0  0
 52 35  1  0  0  0  0
 66 57  1  0  0  0  0
 84 67  1  0  0  0  0
 98 89  1  0  0  0  0
116 99  1  0  0  0  0
130121  1  0  0  0  0
148131  1  0  0  0  0
 46 38  1  0  0  0  0
 78 70  1  0  0  0  0
110102  1  0  0  0  0
142134  1  0  0  0  0
  1149  1  0  0  0  0
  6150  1  0  0  0  0
  8151  1  0  0  0  0
  8152  1  0  0  0  0
  8153  1  0  0  0  0
  9154  1  0  0  0  0
 10155  1  0  0  0  0
 16156  1  0  0  0  0
 18157  1  0  0  0  0
 18158  1  0  0  0  0
 18159  1  0  0  0  0
 19160  1  0  0  0  0
 20161  1  0  0  0  0
 22162  1  0  0  0  0
 26163  1  0  0  0  0
 27164  1  0  0  0  0
 30165  1  0  0  0  0
 30166  1  0  0  0  0
 31167  1  0  0  0  0
 31168  1  0  0  0  0
 31169  1  0  0  0  0
 34170  1  0  0  0  0
 39171  1  0  0  0  0
 40172  1  0  0  0  0
 43173  1  0  0  0  0
 43174  1  0  0  0  0
 44175  1  0  0  0  0
 44176  1  0  0  0  0
 44177  1  0  0  0  0
 46178  1  0  0  0  0
 50179  1  0  0  0  0
 54180  1  0  0  0  0
 58181  1  0  0  0  0
 59182  1  0  0  0  0
 62183  1  0  0  0  0
 62184  1  0  0  0  0
 63185  1  0  0  0  0
 63186  1  0  0  0  0
 63187  1  0  0  0  0
 66188  1  0  0  0  0
 71189  1  0  0  0  0
 72190  1  0  0  0  0
 75191  1  0  0  0  0
 75192  1  0  0  0  0
 76193  1  0  0  0  0
 76194  1  0  0  0  0
 76195  1  0  0  0  0
 78196  1  0  0  0  0
 82197  1  0  0  0  0
 86198  1  0  0  0  0
 90199  1  0  0  0  0
 91200  1  0  0  0  0
 94201  1  0  0  0  0
 94202  1  0  0  0  0
 95203  1  0  0  0  0
 95204  1  0  0  0  0
 95205  1  0  0  0  0
 98206  1  0  0  0  0
103207  1  0  0  0  0
104208  1  0  0  0  0
107209  1  0  0  0  0
107210  1  0  0  0  0
108211  1  0  0  0  0
108212  1  0  0  0  0
108213  1  0  0  0  0
110214  1  0  0  0  0
114215  1  0  0  0  0
118216  1  0  0  0  0
122217  1  0  0  0  0
123218  1  0  0  0  0
126219  1  0  0  0  0
126220  1  0  0  0  0
127221  1  0  0  0  0
127222  1  0  0  0  0
127223  1  0  0  0  0
130224  1  0  0  0  0
135225  1  0  0  0  0
136226  1  0  0  0  0
139227  1  0  0  0  0
139228  1  0  0  0  0
140229  1  0  0  0  0
140230  1  0  0  0  0
140231  1  0  0  0  0
142232  1  0  0  0  0
146233  1  0  0  0  0
147234  1  0  0  0  0
M  END
