176

C          4.33480       -9.58690       13.48140
S          3.22910       -9.55540       12.18650
C          3.77550       -7.99990       11.65460
C          4.81710       -7.54000       12.46170
C          5.12710       -8.45950       13.51950
C          6.15900       -8.15890       14.44040
C          6.87700       -7.00730       14.30790
C          7.97910       -6.64930       15.25570
C          6.59250       -6.12520       13.23120
C          5.60130       -6.37140       12.33110
C          3.16330       -7.37250       10.53160
C          3.06890       -6.04000       10.25050
C          2.41980       -5.75910        9.02400
C          2.20150       -4.50290        8.43020
C          2.68190       -3.27910        9.04930
S          4.34570       -3.10610        9.53150
C          4.10460       -1.48230       10.07850
C          5.23330       -0.66640       10.60440
C          5.96550        0.04890        9.46630
C          2.80820       -1.10920        9.88800
Cl         2.18660        0.43270       10.31180
C          1.99840       -2.12390        9.30960
Cl         0.31570       -1.91890        9.05990
C          1.54410       -4.48940        7.20610
C          1.08960       -5.67050        6.56920
C          1.31990       -6.92740        7.15560
C          0.91090       -8.14770        6.48000
S         -0.05510       -9.34590        7.28880
C         -0.12500      -10.35350        5.88380
C         -0.90960      -11.61870        5.87900
C         -2.38830      -11.34510        5.59360
C          0.56290       -9.78010        4.85680
C          1.15950       -8.53560        5.19170
Cl         2.15950       -7.67720        4.08810
Cl         0.71290      -10.47750        3.29560
C          1.97140       -6.93830        8.37990
S          2.40090       -8.35650        9.29050
C          0.46030       -5.39480        5.33350
C          0.49190       -4.07540        4.98910
S          1.23610       -3.08600        6.22310
C          0.06160       -3.53560        3.73900
C         -0.05880       -4.24840        2.58150
C         -0.44560       -3.46520        1.47060
C         -0.62080       -3.89040        0.13840
C         -0.46580       -5.29290       -0.21230
S         -1.32390       -6.53090        0.66220
C         -0.61550       -7.80260       -0.27360
C         -0.97290       -9.22710       -0.03140
C         -2.32600       -9.57210       -0.65640
C          0.22210       -7.28210       -1.21320
Cl         1.11090       -8.23040       -2.33410
C          0.31520       -5.86380       -1.17850
Cl         1.38980       -4.99930       -2.19590
C         -0.93020       -2.91090       -0.79290
C         -1.08830       -1.54670       -0.43990
C         -0.96560       -1.13180        0.89900
C         -1.21210        0.25330        1.25890
S         -0.06560        1.18990        2.17010
C         -1.04740        2.61290        2.09110
C         -0.63610        3.87680        2.76130
C         -1.08890        3.88980        4.22320
C         -2.20190        2.35500        1.41410
C         -2.29770        1.02210        0.93620
Cl        -3.68640        0.43880        0.11130
Cl        -3.43010        3.51810        1.14450
C         -0.60850       -2.10290        1.82240
S         -0.30900       -1.84130        3.51790
C         -1.32290       -0.73520       -1.56620
C         -1.39440       -1.42110       -2.75080
S         -1.17610       -3.14300       -2.50230
C         -1.58090       -0.80860       -4.01510
S         -1.86830        0.90040       -4.02500
C         -1.88870        0.98740       -5.75410
C         -1.69640       -0.28110       -6.31120
C         -1.52750       -1.30450       -5.32300
C         -1.31570       -2.63590       -5.73170
C         -1.27570       -2.95170       -7.06230
C         -1.05140       -4.35730       -7.52370
C         -1.45490       -1.93340       -8.02970
C         -1.65960       -0.63320       -7.67610
C         -2.03640        2.27420       -6.33100
C         -2.31770        3.41170       -5.62120
C         -2.30930        4.59160       -6.39150
C         -2.49720        5.91360       -5.94450
C         -2.64400        6.19250       -4.52630
S         -3.97680        7.11980       -3.90450
C         -3.44680        6.93170       -2.26750
C         -4.23940        7.47620       -1.13130
C         -5.33770        6.49560       -0.71290
C         -2.30200        6.19350       -2.22230
Cl        -1.47770        5.79210       -0.77360
C         -1.84000        5.77820       -3.49910
Cl        -0.36940        4.91470       -3.70530
C         -2.51620        6.90430       -6.91380
C         -2.30000        6.63760       -8.28850
C         -2.02390        5.32610       -8.72050
C         -1.68200        5.05530      -10.10580
S         -2.48170        3.81580      -11.02610
C         -1.54290        4.15000      -12.44130
C         -1.77390        3.41470      -13.71520
C         -2.85400        4.09910      -14.55640
C         -0.66930        5.16790      -12.20070
C         -0.73870        5.67720      -10.87720
Cl         0.33580        6.88650      -10.30040
Cl         0.42680        5.78580      -13.36830
C         -2.06400        4.32670       -7.76000
S         -1.79000        2.62680       -8.03330
C         -2.40360        7.80640       -9.07840
C         -2.62920        8.94330       -8.35530
S         -2.76680        8.60290       -6.63500
C         -2.76340       10.27990       -8.82620
S         -3.67130       11.43770       -7.90880
C         -3.42570       12.66280       -9.06570
C         -2.65810       12.23270      -10.12640
C         -2.26050       10.86010       -9.99310
C         -1.40730       10.29780      -10.96700
C         -1.00910       11.03580      -12.04580
C         -0.10140       10.46010      -13.08770
C         -1.45050       12.37830      -12.19040
C         -2.24160       12.97330      -11.25930
H          4.35080      -10.42460       14.14970
H          6.36750       -8.86000       15.23520
H          8.91980       -6.54040       14.71700
H          7.76390       -5.69880       15.74290
H          8.10120       -7.41280       16.01970
H          7.19710       -5.23540       13.13030
H          5.43070       -5.69680       11.50730
H          3.41120       -5.27500       10.92060
H          4.83580        0.07190       11.30340
H          5.93190       -1.31410       11.13680
H          5.28280        0.70700        8.93510
H          6.78420        0.64280        9.86380
H          6.36820       -0.67550        8.76240
H         -0.50470      -12.27960        5.11030
H         -0.81180      -12.10810        6.84940
H         -2.94650      -12.27730        5.59090
H         -2.80390      -10.69060        6.35590
H         -2.50330      -10.86690        4.62420
H         -0.01580       -6.14230        4.72820
H          0.16790       -5.29590        2.52110
H         -0.19520       -9.85880       -0.46420
H         -1.01240       -9.41240        1.04380
H         -2.29740       -9.40970       -1.73100
H         -3.10810       -8.94750       -0.23100
H         -2.56910      -10.61430       -0.46760
H         -1.08570        4.71820        2.23000
H          0.44970        3.97450        2.71520
H         -2.17140        3.80840        4.28340
H         -0.78210        4.81630        4.70090
H         -0.64700        3.05470        4.76170
H         -1.39830        0.33580       -1.51870
H         -1.18460       -3.40420       -4.98570
H         -0.18940       -4.40370       -8.18790
H         -1.91780       -4.71410       -8.07970
H         -0.88040       -5.02140       -6.68090
H         -1.42600       -2.20690       -9.07430
H         -1.79620        0.12830       -8.42770
H         -2.53700        3.39090       -4.56940
H         -4.69130        8.42460       -1.42680
H         -3.56860        7.65370       -0.28840
H         -6.01240        6.30750       -1.54470
H         -4.90050        5.55130       -0.39940
H         -5.90900        6.90560        0.11550
H         -0.83880        3.38470      -14.27790
H         -2.08090        2.39210      -13.49050
H         -3.00790        3.55200      -15.48260
H         -3.79310        4.13260      -14.00960
H         -2.55510        5.11600      -14.79780
H         -2.37380        7.78900      -10.15100
H         -3.85430       13.63360       -8.91550
H         -1.04520        9.29090      -10.84100
H         -0.58740       10.47560      -14.06300
H          0.81100       11.05090      -13.16310
H          0.16680        9.43450      -12.84800
H         -1.12470       12.93230      -13.05890
H         -2.55530       14.00160      -11.35880
