
  xtb     03022209533D
 energy: -449.026687811718 gnorm: 0.000598429064 xtb: 6.4.1 (unknown)
228254  0     0  0            999 V2000
    2.3373   -6.5575   12.7539 C   0  0  0  0  0  0  0  0  0  0  0  0
    2.9071   -5.9302   11.7047 C   0  0  0  0  0  0  0  0  0  0  0  0
    2.0300   -5.8146   10.5880 C   0  0  0  0  0  0  0  0  0  0  0  0
    2.2983   -5.2712    9.3213 C   0  0  0  0  0  0  0  0  0  0  0  0
    3.5424   -4.5786    9.0311 C   0  0  0  0  0  0  0  0  0  0  0  0
    4.4925   -4.9580    7.6255 S   0  0  0  0  0  0  0  0  0  0  0  0
    5.6550   -3.7248    7.9803 C   0  0  0  0  0  0  0  0  0  0  0  0
    6.7954   -3.4598    7.0605 C   0  0  0  0  0  0  0  0  0  0  0  0
    6.3354   -2.6647    5.8361 C   0  0  0  0  0  0  0  0  0  0  0  0
    5.3100   -3.0639    9.1207 C   0  0  0  0  0  0  0  0  0  0  0  0
    6.2132   -1.7656    9.7880 Cl  0  0  0  0  0  0  0  0  0  0  0  0
    4.1161   -3.5472    9.7218 C   0  0  0  0  0  0  0  0  0  0  0  0
    3.4352   -2.8291   11.1246 Cl  0  0  0  0  0  0  0  0  0  0  0  0
    1.3074   -5.4057    8.3593 C   0  0  0  0  0  0  0  0  0  0  0  0
    0.0459   -5.9929    8.6163 C   0  0  0  0  0  0  0  0  0  0  0  0
   -0.2445   -6.4829    9.9017 C   0  0  0  0  0  0  0  0  0  0  0  0
   -1.5345   -7.0725   10.2162 C   0  0  0  0  0  0  0  0  0  0  0  0
   -2.1925   -8.3719    9.2645 S   0  0  0  0  0  0  0  0  0  0  0  0
   -3.6031   -8.4944   10.2595 C   0  0  0  0  0  0  0  0  0  0  0  0
   -4.6919   -9.4571    9.9373 C   0  0  0  0  0  0  0  0  0  0  0  0
   -5.6340   -8.8793    8.8782 C   0  0  0  0  0  0  0  0  0  0  0  0
   -3.5577   -7.5688   11.2583 C   0  0  0  0  0  0  0  0  0  0  0  0
   -2.3851   -6.7661   11.2420 C   0  0  0  0  0  0  0  0  0  0  0  0
   -2.1340   -5.4878   12.3549 Cl  0  0  0  0  0  0  0  0  0  0  0  0
   -4.7864   -7.3761   12.4403 Cl  0  0  0  0  0  0  0  0  0  0  0  0
    0.7674   -6.3974   10.8523 C   0  0  0  0  0  0  0  0  0  0  0  0
    0.7041   -7.0453   12.4666 S   0  0  0  0  0  0  0  0  0  0  0  0
   -0.7911   -5.9614    7.4764 C   0  0  0  0  0  0  0  0  0  0  0  0
   -0.2107   -5.3997    6.3711 C   0  0  0  0  0  0  0  0  0  0  0  0
    1.4207   -4.8511    6.7155 S   0  0  0  0  0  0  0  0  0  0  0  0
   -0.8122   -5.2472    5.0930 C   0  0  0  0  0  0  0  0  0  0  0  0
   -2.4978   -5.6275    4.9209 S   0  0  0  0  0  0  0  0  0  0  0  0
   -2.4990   -5.2628    3.2373 C   0  0  0  0  0  0  0  0  0  0  0  0
   -1.2372   -4.8411    2.8143 C   0  0  0  0  0  0  0  0  0  0  0  0
   -0.2738   -4.8234    3.8725 C   0  0  0  0  0  0  0  0  0  0  0  0
    1.0367   -4.3787    3.5957 C   0  0  0  0  0  0  0  0  0  0  0  0
    1.3712   -3.9370    2.3459 C   0  0  0  0  0  0  0  0  0  0  0  0
    2.7503   -3.4419    2.0380 C   0  0  0  0  0  0  0  0  0  0  0  0
    0.3979   -3.9339    1.3161 C   0  0  0  0  0  0  0  0  0  0  0  0
   -0.8711   -4.3762    1.5311 C   0  0  0  0  0  0  0  0  0  0  0  0
   -3.6839   -5.2573    2.4365 C   0  0  0  0  0  0  0  0  0  0  0  0
   -3.7968   -5.6613    1.1396 C   0  0  0  0  0  0  0  0  0  0  0  0
   -4.9996   -5.2446    0.5161 C   0  0  0  0  0  0  0  0  0  0  0  0
   -5.3409   -5.3232   -0.8454 C   0  0  0  0  0  0  0  0  0  0  0  0
   -4.4817   -5.9447   -1.8387 C   0  0  0  0  0  0  0  0  0  0  0  0
   -2.7912   -5.5424   -1.9526 S   0  0  0  0  0  0  0  0  0  0  0  0
   -2.5837   -6.4653   -3.4007 C   0  0  0  0  0  0  0  0  0  0  0  0
   -1.2796   -6.4937   -4.1174 C   0  0  0  0  0  0  0  0  0  0  0  0
   -1.1510   -5.2882   -5.0518 C   0  0  0  0  0  0  0  0  0  0  0  0
   -3.7619   -7.0457   -3.7631 C   0  0  0  0  0  0  0  0  0  0  0  0
   -3.9516   -8.0362   -5.1501 Cl  0  0  0  0  0  0  0  0  0  0  0  0
   -4.8382   -6.7524   -2.8829 C   0  0  0  0  0  0  0  0  0  0  0  0
   -6.4030   -7.4175   -3.0904 Cl  0  0  0  0  0  0  0  0  0  0  0  0
   -6.4495   -4.5939   -1.2575 C   0  0  0  0  0  0  0  0  0  0  0  0
   -7.2289   -3.8040   -0.3768 C   0  0  0  0  0  0  0  0  0  0  0  0
   -6.9365   -3.7989    0.9957 C   0  0  0  0  0  0  0  0  0  0  0  0
   -7.6243   -2.8881    1.9059 C   0  0  0  0  0  0  0  0  0  0  0  0
   -8.6140   -3.4366    3.2200 S   0  0  0  0  0  0  0  0  0  0  0  0
   -8.9577   -1.8180    3.7334 C   0  0  0  0  0  0  0  0  0  0  0  0
   -9.7834   -1.5554    4.9440 C   0  0  0  0  0  0  0  0  0  0  0  0
   -8.9439   -1.6996    6.2157 C   0  0  0  0  0  0  0  0  0  0  0  0
   -8.3221   -0.9207    2.9288 C   0  0  0  0  0  0  0  0  0  0  0  0
   -7.5649   -1.5239    1.8891 C   0  0  0  0  0  0  0  0  0  0  0  0
   -6.6266   -0.6192    0.7673 Cl  0  0  0  0  0  0  0  0  0  0  0  0
   -8.4134    0.7800    3.1225 Cl  0  0  0  0  0  0  0  0  0  0  0  0
   -5.8303   -4.5246    1.4096 C   0  0  0  0  0  0  0  0  0  0  0  0
   -5.1364   -4.4439    3.0042 S   0  0  0  0  0  0  0  0  0  0  0  0
   -8.0564   -2.8889   -1.0756 C   0  0  0  0  0  0  0  0  0  0  0  0
   -7.8629   -2.9097   -2.4266 C   0  0  0  0  0  0  0  0  0  0  0  0
   -6.8323   -4.2473   -2.9192 S   0  0  0  0  0  0  0  0  0  0  0  0
   -7.9698   -1.7954   -3.3139 C   0  0  0  0  0  0  0  0  0  0  0  0
   -7.4016   -1.7049   -4.5522 C   0  0  0  0  0  0  0  0  0  0  0  0
   -6.9744   -0.3933   -4.8784 C   0  0  0  0  0  0  0  0  0  0  0  0
   -6.0778   -0.0303   -5.8967 C   0  0  0  0  0  0  0  0  0  0  0  0
   -5.6300   -1.0059   -6.8855 C   0  0  0  0  0  0  0  0  0  0  0  0
   -5.9394   -0.8031   -8.5805 S   0  0  0  0  0  0  0  0  0  0  0  0
   -5.1374   -2.2841   -8.9811 C   0  0  0  0  0  0  0  0  0  0  0  0
   -4.9926   -2.7249  -10.3958 C   0  0  0  0  0  0  0  0  0  0  0  0
   -3.7708   -2.0720  -11.0468 C   0  0  0  0  0  0  0  0  0  0  0  0
   -4.6488   -2.8776   -7.8560 C   0  0  0  0  0  0  0  0  0  0  0  0
   -3.7941   -4.3642   -7.8503 Cl  0  0  0  0  0  0  0  0  0  0  0  0
   -4.9267   -2.1560   -6.6642 C   0  0  0  0  0  0  0  0  0  0  0  0
   -4.3734   -2.6688   -5.1201 Cl  0  0  0  0  0  0  0  0  0  0  0  0
   -5.4847    1.2197   -5.7946 C   0  0  0  0  0  0  0  0  0  0  0  0
   -5.7834    2.1220   -4.7472 C   0  0  0  0  0  0  0  0  0  0  0  0
   -6.7848    1.8182   -3.8063 C   0  0  0  0  0  0  0  0  0  0  0  0
   -7.0694    2.7377   -2.7205 C   0  0  0  0  0  0  0  0  0  0  0  0
   -7.0658    2.2181   -1.0612 S   0  0  0  0  0  0  0  0  0  0  0  0
   -7.3535    3.8193   -0.4748 C   0  0  0  0  0  0  0  0  0  0  0  0
   -7.4260    4.0879    0.9875 C   0  0  0  0  0  0  0  0  0  0  0  0
   -6.1054    3.7467    1.6787 C   0  0  0  0  0  0  0  0  0  0  0  0
   -7.4541    4.6941   -1.5156 C   0  0  0  0  0  0  0  0  0  0  0  0
   -7.2887    4.0865   -2.7891 C   0  0  0  0  0  0  0  0  0  0  0  0
   -7.4163    4.9652   -4.2577 Cl  0  0  0  0  0  0  0  0  0  0  0  0
   -7.7513    6.3759   -1.3367 Cl  0  0  0  0  0  0  0  0  0  0  0  0
   -7.3234    0.5416   -3.8714 C   0  0  0  0  0  0  0  0  0  0  0  0
   -8.2653   -0.2082   -2.6125 S   0  0  0  0  0  0  0  0  0  0  0  0
   -4.7826    3.1191   -4.6178 C   0  0  0  0  0  0  0  0  0  0  0  0
   -3.7718    2.9988   -5.5180 C   0  0  0  0  0  0  0  0  0  0  0  0
   -4.0689    1.7220   -6.6854 S   0  0  0  0  0  0  0  0  0  0  0  0
   -2.4524    3.5415   -5.3062 C   0  0  0  0  0  0  0  0  0  0  0  0
   -1.8215    3.3465   -4.1161 C   0  0  0  0  0  0  0  0  0  0  0  0
   -0.4932    3.8315   -4.0884 C   0  0  0  0  0  0  0  0  0  0  0  0
    0.4537    3.6595   -3.0649 C   0  0  0  0  0  0  0  0  0  0  0  0
    0.0830    2.9982   -1.8247 C   0  0  0  0  0  0  0  0  0  0  0  0
    0.9655    1.6171   -1.2411 S   0  0  0  0  0  0  0  0  0  0  0  0
   -0.1245    1.3780    0.0839 C   0  0  0  0  0  0  0  0  0  0  0  0
    0.0783    0.2683    1.0565 C   0  0  0  0  0  0  0  0  0  0  0  0
    1.2322    0.5695    2.0141 C   0  0  0  0  0  0  0  0  0  0  0  0
   -1.0938    2.3362    0.0759 C   0  0  0  0  0  0  0  0  0  0  0  0
   -2.3615    2.4331    1.2294 Cl  0  0  0  0  0  0  0  0  0  0  0  0
   -0.9821    3.2525   -1.0051 C   0  0  0  0  0  0  0  0  0  0  0  0
   -2.0566    4.5779   -1.1968 Cl  0  0  0  0  0  0  0  0  0  0  0  0
    1.7454    4.0826   -3.3381 C   0  0  0  0  0  0  0  0  0  0  0  0
    2.1090    4.7238   -4.5488 C   0  0  0  0  0  0  0  0  0  0  0  0
    1.1487    4.9238   -5.5580 C   0  0  0  0  0  0  0  0  0  0  0  0
    1.4808    5.5749   -6.8132 C   0  0  0  0  0  0  0  0  0  0  0  0
    2.8271    5.0571   -7.7856 S   0  0  0  0  0  0  0  0  0  0  0  0
    2.5017    6.2368   -9.0081 C   0  0  0  0  0  0  0  0  0  0  0  0
    3.3194    6.3112  -10.2498 C   0  0  0  0  0  0  0  0  0  0  0  0
    2.7641    5.3746  -11.3256 C   0  0  0  0  0  0  0  0  0  0  0  0
    1.4081    6.9774   -8.6716 C   0  0  0  0  0  0  0  0  0  0  0  0
    0.8276    6.6076   -7.4289 C   0  0  0  0  0  0  0  0  0  0  0  0
   -0.5029    7.4490   -6.7524 Cl  0  0  0  0  0  0  0  0  0  0  0  0
    0.7816    8.2488   -9.6378 Cl  0  0  0  0  0  0  0  0  0  0  0  0
   -0.1326    4.4393   -5.3138 C   0  0  0  0  0  0  0  0  0  0  0  0
   -1.4450    4.3689   -6.4635 S   0  0  0  0  0  0  0  0  0  0  0  0
    3.4817    5.0808   -4.5574 C   0  0  0  0  0  0  0  0  0  0  0  0
    4.1495    4.7054   -3.4304 C   0  0  0  0  0  0  0  0  0  0  0  0
    3.1035    3.9172   -2.2659 S   0  0  0  0  0  0  0  0  0  0  0  0
    5.5367    4.8482   -3.1324 C   0  0  0  0  0  0  0  0  0  0  0  0
    6.1959    4.3370   -2.0546 C   0  0  0  0  0  0  0  0  0  0  0  0
    7.5846    4.6141   -2.0565 C   0  0  0  0  0  0  0  0  0  0  0  0
    8.5505    4.1997   -1.1251 C   0  0  0  0  0  0  0  0  0  0  0  0
    8.1937    3.3560    0.0044 C   0  0  0  0  0  0  0  0  0  0  0  0
    7.3555    1.8499   -0.2357 S   0  0  0  0  0  0  0  0  0  0  0  0
    7.3512    1.4889    1.4578 C   0  0  0  0  0  0  0  0  0  0  0  0
    6.7030    0.2533    1.9779 C   0  0  0  0  0  0  0  0  0  0  0  0
    5.1803    0.3300    1.8513 C   0  0  0  0  0  0  0  0  0  0  0  0
    7.9598    2.4895    2.1539 C   0  0  0  0  0  0  0  0  0  0  0  0
    8.1437    2.4974    3.8600 Cl  0  0  0  0  0  0  0  0  0  0  0  0
    8.4440    3.5460    1.3344 C   0  0  0  0  0  0  0  0  0  0  0  0
    9.1845    4.9466    1.9868 Cl  0  0  0  0  0  0  0  0  0  0  0  0
    9.8611    4.6001   -1.3579 C   0  0  0  0  0  0  0  0  0  0  0  0
   10.2373    5.3952   -2.4676 C   0  0  0  0  0  0  0  0  0  0  0  0
    9.2695    5.8168   -3.3926 C   0  0  0  0  0  0  0  0  0  0  0  0
    9.6182    6.6296   -4.5481 C   0  0  0  0  0  0  0  0  0  0  0  0
   10.8264    6.1170   -5.6889 S   0  0  0  0  0  0  0  0  0  0  0  0
   10.6064    7.5220   -6.6749 C   0  0  0  0  0  0  0  0  0  0  0  0
   11.3631    7.7049   -7.9440 C   0  0  0  0  0  0  0  0  0  0  0  0
   10.6178    7.0713   -9.1212 C   0  0  0  0  0  0  0  0  0  0  0  0
    9.6449    8.3272   -6.1418 C   0  0  0  0  0  0  0  0  0  0  0  0
    9.0841    7.8267   -4.9357 C   0  0  0  0  0  0  0  0  0  0  0  0
    7.9159    8.6982   -4.0342 Cl  0  0  0  0  0  0  0  0  0  0  0  0
    9.1515    9.8156   -6.8382 Cl  0  0  0  0  0  0  0  0  0  0  0  0
    7.9613    5.4067   -3.1684 C   0  0  0  0  0  0  0  0  0  0  0  0
    6.6013    5.7284   -4.2072 S   0  0  0  0  0  0  0  0  0  0  0  0
   11.6385    5.6563   -2.4737 C   0  0  0  0  0  0  0  0  0  0  0  0
   12.2849    5.0665   -1.4474 C   0  0  0  0  0  0  0  0  0  0  0  0
   11.2464    4.1703   -0.3964 S   0  0  0  0  0  0  0  0  0  0  0  0
    2.7757   -6.7753   13.7082 H   0  0  0  0  0  0  0  0  0  0  0  0
    3.9208   -5.5746   11.7015 H   0  0  0  0  0  0  0  0  0  0  0  0
    7.5572   -2.8959    7.6010 H   0  0  0  0  0  0  0  0  0  0  0  0
    7.2270   -4.4078    6.7339 H   0  0  0  0  0  0  0  0  0  0  0  0
    5.9169   -1.7092    6.1422 H   0  0  0  0  0  0  0  0  0  0  0  0
    5.5742   -3.2202    5.2932 H   0  0  0  0  0  0  0  0  0  0  0  0
    7.1763   -2.4811    5.1726 H   0  0  0  0  0  0  0  0  0  0  0  0
   -5.2521   -9.6695   10.8496 H   0  0  0  0  0  0  0  0  0  0  0  0
   -4.2572  -10.3875    9.5679 H   0  0  0  0  0  0  0  0  0  0  0  0
   -6.4261   -9.5891    8.6561 H   0  0  0  0  0  0  0  0  0  0  0  0
   -5.0877   -8.6670    7.9622 H   0  0  0  0  0  0  0  0  0  0  0  0
   -6.0831   -7.9566    9.2369 H   0  0  0  0  0  0  0  0  0  0  0  0
   -1.7942   -6.3477    7.4650 H   0  0  0  0  0  0  0  0  0  0  0  0
    1.7759   -4.3768    4.3801 H   0  0  0  0  0  0  0  0  0  0  0  0
    2.7062   -2.4507    1.5885 H   0  0  0  0  0  0  0  0  0  0  0  0
    3.3567   -3.3961    2.9388 H   0  0  0  0  0  0  0  0  0  0  0  0
    3.2374   -4.1067    1.3250 H   0  0  0  0  0  0  0  0  0  0  0  0
    0.6816   -3.5683    0.3399 H   0  0  0  0  0  0  0  0  0  0  0  0
   -1.6053   -4.3575    0.7408 H   0  0  0  0  0  0  0  0  0  0  0  0
   -3.0336   -6.2300    0.6416 H   0  0  0  0  0  0  0  0  0  0  0  0
   -0.4643   -6.4821   -3.3915 H   0  0  0  0  0  0  0  0  0  0  0  0
   -1.2199   -7.4155   -4.6990 H   0  0  0  0  0  0  0  0  0  0  0  0
   -1.2124   -4.3617   -4.4855 H   0  0  0  0  0  0  0  0  0  0  0  0
   -1.9502   -5.2964   -5.7880 H   0  0  0  0  0  0  0  0  0  0  0  0
   -0.1976   -5.3178   -5.5724 H   0  0  0  0  0  0  0  0  0  0  0  0
  -10.1852   -0.5424    4.8817 H   0  0  0  0  0  0  0  0  0  0  0  0
  -10.6157   -2.2608    4.9773 H   0  0  0  0  0  0  0  0  0  0  0  0
   -9.5572   -1.5081    7.0919 H   0  0  0  0  0  0  0  0  0  0  0  0
   -8.1191   -0.9916    6.2054 H   0  0  0  0  0  0  0  0  0  0  0  0
   -8.5369   -2.7055    6.2858 H   0  0  0  0  0  0  0  0  0  0  0  0
   -8.6723   -2.1548   -0.5883 H   0  0  0  0  0  0  0  0  0  0  0  0
   -7.1755   -2.5694   -5.1493 H   0  0  0  0  0  0  0  0  0  0  0  0
   -5.8901   -2.4538  -10.9541 H   0  0  0  0  0  0  0  0  0  0  0  0
   -4.8821   -3.8107  -10.4162 H   0  0  0  0  0  0  0  0  0  0  0  0
   -2.8660   -2.3474  -10.5109 H   0  0  0  0  0  0  0  0  0  0  0  0
   -3.8684   -0.9891  -11.0299 H   0  0  0  0  0  0  0  0  0  0  0  0
   -3.6786   -2.3991  -12.0789 H   0  0  0  0  0  0  0  0  0  0  0  0
   -8.2242    3.4845    1.4273 H   0  0  0  0  0  0  0  0  0  0  0  0
   -7.6675    5.1415    1.1362 H   0  0  0  0  0  0  0  0  0  0  0  0
   -5.8762    2.6911    1.5517 H   0  0  0  0  0  0  0  0  0  0  0  0
   -6.1732    3.9621    2.7418 H   0  0  0  0  0  0  0  0  0  0  0  0
   -5.2920    4.3314    1.2556 H   0  0  0  0  0  0  0  0  0  0  0  0
   -4.7679    3.8463   -3.8268 H   0  0  0  0  0  0  0  0  0  0  0  0
   -2.2793    2.8100   -3.3063 H   0  0  0  0  0  0  0  0  0  0  0  0
    0.2914   -0.6550    0.5137 H   0  0  0  0  0  0  0  0  0  0  0  0
   -0.8442    0.1290    1.6223 H   0  0  0  0  0  0  0  0  0  0  0  0
    1.3597   -0.2535    2.7125 H   0  0  0  0  0  0  0  0  0  0  0  0
    1.0268    1.4754    2.5785 H   0  0  0  0  0  0  0  0  0  0  0  0
    2.1562    0.7092    1.4585 H   0  0  0  0  0  0  0  0  0  0  0  0
    3.3040    7.3388  -10.6180 H   0  0  0  0  0  0  0  0  0  0  0  0
    4.3502    6.0348  -10.0222 H   0  0  0  0  0  0  0  0  0  0  0  0
    1.7402    5.6464  -11.5688 H   0  0  0  0  0  0  0  0  0  0  0  0
    3.3666    5.4434  -12.2272 H   0  0  0  0  0  0  0  0  0  0  0  0
    2.7766    4.3458  -10.9737 H   0  0  0  0  0  0  0  0  0  0  0  0
    3.9664    5.5874   -5.3721 H   0  0  0  0  0  0  0  0  0  0  0  0
    5.6963    3.7743   -1.2871 H   0  0  0  0  0  0  0  0  0  0  0  0
    7.0670   -0.6112    1.4183 H   0  0  0  0  0  0  0  0  0  0  0  0
    6.9815    0.1322    3.0258 H   0  0  0  0  0  0  0  0  0  0  0  0
    4.7286   -0.5773    2.2436 H   0  0  0  0  0  0  0  0  0  0  0  0
    4.7978    1.1795    2.4116 H   0  0  0  0  0  0  0  0  0  0  0  0
    4.8957    0.4436    0.8076 H   0  0  0  0  0  0  0  0  0  0  0  0
   12.3487    7.2467   -7.8475 H   0  0  0  0  0  0  0  0  0  0  0  0
   11.4890    8.7740   -8.1260 H   0  0  0  0  0  0  0  0  0  0  0  0
   10.4879    6.0045   -8.9558 H   0  0  0  0  0  0  0  0  0  0  0  0
    9.6379    7.5277   -9.2352 H   0  0  0  0  0  0  0  0  0  0  0  0
   11.1796    7.2170  -10.0398 H   0  0  0  0  0  0  0  0  0  0  0  0
   12.1263    6.2586   -3.2176 H   0  0  0  0  0  0  0  0  0  0  0  0
   13.3329    5.1019   -1.2224 H   0  0  0  0  0  0  0  0  0  0  0  0
  1  2  2  0  0  0  0
  2  3  1  0  0  0  0
  3  4  2  0  0  0  0
  4  5  1  0  0  0  0
  5  6  1  0  0  0  0
  6  7  1  0  0  0  0
  7  8  1  0  0  0  0
  8  9  1  0  0  0  0
  7 10  2  0  0  0  0
 10 11  1  0  0  0  0
 10 12  1  0  0  0  0
 12 13  1  0  0  0  0
  4 14  1  0  0  0  0
 14 15  2  0  0  0  0
 15 16  1  0  0  0  0
 16 17  1  0  0  0  0
 17 18  1  0  0  0  0
 18 19  1  0  0  0  0
 19 20  1  0  0  0  0
 20 21  1  0  0  0  0
 19 22  2  0  0  0  0
 22 23  1  0  0  0  0
 23 24  1  0  0  0  0
 22 25  1  0  0  0  0
 16 26  2  0  0  0  0
 26 27  1  0  0  0  0
 15 28  1  0  0  0  0
 28 29  2  0  0  0  0
 29 30  1  0  0  0  0
 29 31  1  0  0  0  0
 31 32  1  0  0  0  0
 32 33  1  0  0  0  0
 33 34  2  0  0  0  0
 34 35  1  0  0  0  0
 35 36  1  0  0  0  0
 36 37  2  0  0  0  0
 37 38  1  0  0  0  0
 37 39  1  0  0  0  0
 39 40  2  0  0  0  0
 33 41  1  0  0  0  0
 41 42  2  0  0  0  0
 42 43  1  0  0  0  0
 43 44  2  0  0  0  0
 44 45  1  0  0  0  0
 45 46  1  0  0  0  0
 46 47  1  0  0  0  0
 47 48  1  0  0  0  0
 48 49  1  0  0  0  0
 47 50  2  0  0  0  0
 50 51  1  0  0  0  0
 50 52  1  0  0  0  0
 52 53  1  0  0  0  0
 44 54  1  0  0  0  0
 54 55  2  0  0  0  0
 55 56  1  0  0  0  0
 56 57  1  0  0  0  0
 57 58  1  0  0  0  0
 58 59  1  0  0  0  0
 59 60  1  0  0  0  0
 60 61  1  0  0  0  0
 59 62  2  0  0  0  0
 62 63  1  0  0  0  0
 63 64  1  0  0  0  0
 62 65  1  0  0  0  0
 56 66  2  0  0  0  0
 66 67  1  0  0  0  0
 55 68  1  0  0  0  0
 68 69  2  0  0  0  0
 69 70  1  0  0  0  0
 69 71  1  0  0  0  0
 71 72  2  0  0  0  0
 72 73  1  0  0  0  0
 73 74  2  0  0  0  0
 74 75  1  0  0  0  0
 75 76  1  0  0  0  0
 76 77  1  0  0  0  0
 77 78  1  0  0  0  0
 78 79  1  0  0  0  0
 77 80  2  0  0  0  0
 80 81  1  0  0  0  0
 80 82  1  0  0  0  0
 82 83  1  0  0  0  0
 74 84  1  0  0  0  0
 84 85  2  0  0  0  0
 85 86  1  0  0  0  0
 86 87  1  0  0  0  0
 87 88  1  0  0  0  0
 88 89  1  0  0  0  0
 89 90  1  0  0  0  0
 90 91  1  0  0  0  0
 89 92  2  0  0  0  0
 92 93  1  0  0  0  0
 93 94  1  0  0  0  0
 92 95  1  0  0  0  0
 86 96  2  0  0  0  0
 96 97  1  0  0  0  0
 85 98  1  0  0  0  0
 98 99  2  0  0  0  0
 99100  1  0  0  0  0
 99101  1  0  0  0  0
101102  2  0  0  0  0
102103  1  0  0  0  0
103104  2  0  0  0  0
104105  1  0  0  0  0
105106  1  0  0  0  0
106107  1  0  0  0  0
107108  1  0  0  0  0
108109  1  0  0  0  0
107110  2  0  0  0  0
110111  1  0  0  0  0
110112  1  0  0  0  0
112113  1  0  0  0  0
104114  1  0  0  0  0
114115  2  0  0  0  0
115116  1  0  0  0  0
116117  1  0  0  0  0
117118  1  0  0  0  0
118119  1  0  0  0  0
119120  1  0  0  0  0
120121  1  0  0  0  0
119122  2  0  0  0  0
122123  1  0  0  0  0
123124  1  0  0  0  0
122125  1  0  0  0  0
116126  2  0  0  0  0
126127  1  0  0  0  0
115128  1  0  0  0  0
128129  2  0  0  0  0
129130  1  0  0  0  0
129131  1  0  0  0  0
131132  2  0  0  0  0
132133  1  0  0  0  0
133134  2  0  0  0  0
134135  1  0  0  0  0
135136  1  0  0  0  0
136137  1  0  0  0  0
137138  1  0  0  0  0
138139  1  0  0  0  0
137140  2  0  0  0  0
140141  1  0  0  0  0
140142  1  0  0  0  0
142143  1  0  0  0  0
134144  1  0  0  0  0
144145  2  0  0  0  0
145146  1  0  0  0  0
146147  1  0  0  0  0
147148  1  0  0  0  0
148149  1  0  0  0  0
149150  1  0  0  0  0
150151  1  0  0  0  0
149152  2  0  0  0  0
152153  1  0  0  0  0
153154  1  0  0  0  0
152155  1  0  0  0  0
146156  2  0  0  0  0
156157  1  0  0  0  0
145158  1  0  0  0  0
158159  2  0  0  0  0
159160  1  0  0  0  0
 27  1  1  0  0  0  0
 35 31  2  0  0  0  0
 67 41  1  0  0  0  0
 97 71  1  0  0  0  0
127101  1  0  0  0  0
157131  1  0  0  0  0
 26  3  1  0  0  0  0
 40 34  1  0  0  0  0
 66 43  1  0  0  0  0
 96 73  1  0  0  0  0
126103  1  0  0  0  0
156133  1  0  0  0  0
 12  5  2  0  0  0  0
 30 14  1  0  0  0  0
 52 45  2  0  0  0  0
 70 54  1  0  0  0  0
 82 75  2  0  0  0  0
100 84  1  0  0  0  0
112105  2  0  0  0  0
130114  1  0  0  0  0
142135  2  0  0  0  0
160144  1  0  0  0  0
 23 17  2  0  0  0  0
 63 57  2  0  0  0  0
 93 87  2  0  0  0  0
123117  2  0  0  0  0
153147  2  0  0  0  0
  1161  1  0  0  0  0
  2162  1  0  0  0  0
  8163  1  0  0  0  0
  8164  1  0  0  0  0
  9165  1  0  0  0  0
  9166  1  0  0  0  0
  9167  1  0  0  0  0
 20168  1  0  0  0  0
 20169  1  0  0  0  0
 21170  1  0  0  0  0
 21171  1  0  0  0  0
 21172  1  0  0  0  0
 28173  1  0  0  0  0
 36174  1  0  0  0  0
 38175  1  0  0  0  0
 38176  1  0  0  0  0
 38177  1  0  0  0  0
 39178  1  0  0  0  0
 40179  1  0  0  0  0
 42180  1  0  0  0  0
 48181  1  0  0  0  0
 48182  1  0  0  0  0
 49183  1  0  0  0  0
 49184  1  0  0  0  0
 49185  1  0  0  0  0
 60186  1  0  0  0  0
 60187  1  0  0  0  0
 61188  1  0  0  0  0
 61189  1  0  0  0  0
 61190  1  0  0  0  0
 68191  1  0  0  0  0
 72192  1  0  0  0  0
 78193  1  0  0  0  0
 78194  1  0  0  0  0
 79195  1  0  0  0  0
 79196  1  0  0  0  0
 79197  1  0  0  0  0
 90198  1  0  0  0  0
 90199  1  0  0  0  0
 91200  1  0  0  0  0
 91201  1  0  0  0  0
 91202  1  0  0  0  0
 98203  1  0  0  0  0
102204  1  0  0  0  0
108205  1  0  0  0  0
108206  1  0  0  0  0
109207  1  0  0  0  0
109208  1  0  0  0  0
109209  1  0  0  0  0
120210  1  0  0  0  0
120211  1  0  0  0  0
121212  1  0  0  0  0
121213  1  0  0  0  0
121214  1  0  0  0  0
128215  1  0  0  0  0
132216  1  0  0  0  0
138217  1  0  0  0  0
138218  1  0  0  0  0
139219  1  0  0  0  0
139220  1  0  0  0  0
139221  1  0  0  0  0
150222  1  0  0  0  0
150223  1  0  0  0  0
151224  1  0  0  0  0
151225  1  0  0  0  0
151226  1  0  0  0  0
158227  1  0  0  0  0
159228  1  0  0  0  0
M  END
