
  xtb     03022222023D
 energy: -331.255682041025 gnorm: 0.000463481704 xtb: 6.4.1 (unknown)
176196  0     0  0            999 V2000
    4.3348   -9.5869   13.4814 C   0  0  0  0  0  0  0  0  0  0  0  0
    3.2291   -9.5554   12.1865 S   0  0  0  0  0  0  0  0  0  0  0  0
    3.7755   -7.9999   11.6546 C   0  0  0  0  0  0  0  0  0  0  0  0
    4.8171   -7.5400   12.4617 C   0  0  0  0  0  0  0  0  0  0  0  0
    5.1271   -8.4595   13.5195 C   0  0  0  0  0  0  0  0  0  0  0  0
    6.1590   -8.1589   14.4404 C   0  0  0  0  0  0  0  0  0  0  0  0
    6.8770   -7.0073   14.3079 C   0  0  0  0  0  0  0  0  0  0  0  0
    7.9791   -6.6493   15.2557 C   0  0  0  0  0  0  0  0  0  0  0  0
    6.5925   -6.1252   13.2312 C   0  0  0  0  0  0  0  0  0  0  0  0
    5.6013   -6.3714   12.3311 C   0  0  0  0  0  0  0  0  0  0  0  0
    3.1633   -7.3725   10.5316 C   0  0  0  0  0  0  0  0  0  0  0  0
    3.0689   -6.0400   10.2505 C   0  0  0  0  0  0  0  0  0  0  0  0
    2.4198   -5.7591    9.0240 C   0  0  0  0  0  0  0  0  0  0  0  0
    2.2015   -4.5029    8.4302 C   0  0  0  0  0  0  0  0  0  0  0  0
    2.6819   -3.2791    9.0493 C   0  0  0  0  0  0  0  0  0  0  0  0
    4.3457   -3.1061    9.5315 S   0  0  0  0  0  0  0  0  0  0  0  0
    4.1046   -1.4823   10.0785 C   0  0  0  0  0  0  0  0  0  0  0  0
    5.2333   -0.6664   10.6044 C   0  0  0  0  0  0  0  0  0  0  0  0
    5.9655    0.0489    9.4663 C   0  0  0  0  0  0  0  0  0  0  0  0
    2.8082   -1.1092    9.8880 C   0  0  0  0  0  0  0  0  0  0  0  0
    2.1866    0.4327   10.3118 Cl  0  0  0  0  0  0  0  0  0  0  0  0
    1.9984   -2.1239    9.3096 C   0  0  0  0  0  0  0  0  0  0  0  0
    0.3157   -1.9189    9.0599 Cl  0  0  0  0  0  0  0  0  0  0  0  0
    1.5441   -4.4894    7.2061 C   0  0  0  0  0  0  0  0  0  0  0  0
    1.0896   -5.6705    6.5692 C   0  0  0  0  0  0  0  0  0  0  0  0
    1.3199   -6.9274    7.1556 C   0  0  0  0  0  0  0  0  0  0  0  0
    0.9109   -8.1477    6.4800 C   0  0  0  0  0  0  0  0  0  0  0  0
   -0.0551   -9.3459    7.2888 S   0  0  0  0  0  0  0  0  0  0  0  0
   -0.1250  -10.3535    5.8838 C   0  0  0  0  0  0  0  0  0  0  0  0
   -0.9096  -11.6187    5.8790 C   0  0  0  0  0  0  0  0  0  0  0  0
   -2.3883  -11.3451    5.5936 C   0  0  0  0  0  0  0  0  0  0  0  0
    0.5629   -9.7801    4.8568 C   0  0  0  0  0  0  0  0  0  0  0  0
    1.1595   -8.5356    5.1917 C   0  0  0  0  0  0  0  0  0  0  0  0
    2.1595   -7.6772    4.0881 Cl  0  0  0  0  0  0  0  0  0  0  0  0
    0.7129  -10.4775    3.2956 Cl  0  0  0  0  0  0  0  0  0  0  0  0
    1.9714   -6.9383    8.3799 C   0  0  0  0  0  0  0  0  0  0  0  0
    2.4009   -8.3565    9.2905 S   0  0  0  0  0  0  0  0  0  0  0  0
    0.4603   -5.3948    5.3335 C   0  0  0  0  0  0  0  0  0  0  0  0
    0.4919   -4.0754    4.9891 C   0  0  0  0  0  0  0  0  0  0  0  0
    1.2361   -3.0860    6.2231 S   0  0  0  0  0  0  0  0  0  0  0  0
    0.0616   -3.5356    3.7390 C   0  0  0  0  0  0  0  0  0  0  0  0
   -0.0588   -4.2484    2.5815 C   0  0  0  0  0  0  0  0  0  0  0  0
   -0.4456   -3.4652    1.4706 C   0  0  0  0  0  0  0  0  0  0  0  0
   -0.6208   -3.8904    0.1384 C   0  0  0  0  0  0  0  0  0  0  0  0
   -0.4658   -5.2929   -0.2123 C   0  0  0  0  0  0  0  0  0  0  0  0
   -1.3239   -6.5309    0.6622 S   0  0  0  0  0  0  0  0  0  0  0  0
   -0.6155   -7.8026   -0.2736 C   0  0  0  0  0  0  0  0  0  0  0  0
   -0.9729   -9.2271   -0.0314 C   0  0  0  0  0  0  0  0  0  0  0  0
   -2.3260   -9.5721   -0.6564 C   0  0  0  0  0  0  0  0  0  0  0  0
    0.2221   -7.2821   -1.2132 C   0  0  0  0  0  0  0  0  0  0  0  0
    1.1109   -8.2304   -2.3341 Cl  0  0  0  0  0  0  0  0  0  0  0  0
    0.3152   -5.8638   -1.1785 C   0  0  0  0  0  0  0  0  0  0  0  0
    1.3898   -4.9993   -2.1959 Cl  0  0  0  0  0  0  0  0  0  0  0  0
   -0.9302   -2.9109   -0.7929 C   0  0  0  0  0  0  0  0  0  0  0  0
   -1.0883   -1.5467   -0.4399 C   0  0  0  0  0  0  0  0  0  0  0  0
   -0.9656   -1.1318    0.8990 C   0  0  0  0  0  0  0  0  0  0  0  0
   -1.2121    0.2533    1.2589 C   0  0  0  0  0  0  0  0  0  0  0  0
   -0.0656    1.1899    2.1701 S   0  0  0  0  0  0  0  0  0  0  0  0
   -1.0474    2.6129    2.0911 C   0  0  0  0  0  0  0  0  0  0  0  0
   -0.6361    3.8768    2.7613 C   0  0  0  0  0  0  0  0  0  0  0  0
   -1.0889    3.8898    4.2232 C   0  0  0  0  0  0  0  0  0  0  0  0
   -2.2019    2.3550    1.4141 C   0  0  0  0  0  0  0  0  0  0  0  0
   -2.2977    1.0221    0.9362 C   0  0  0  0  0  0  0  0  0  0  0  0
   -3.6864    0.4388    0.1113 Cl  0  0  0  0  0  0  0  0  0  0  0  0
   -3.4301    3.5181    1.1445 Cl  0  0  0  0  0  0  0  0  0  0  0  0
   -0.6085   -2.1029    1.8224 C   0  0  0  0  0  0  0  0  0  0  0  0
   -0.3090   -1.8413    3.5179 S   0  0  0  0  0  0  0  0  0  0  0  0
   -1.3229   -0.7352   -1.5662 C   0  0  0  0  0  0  0  0  0  0  0  0
   -1.3944   -1.4211   -2.7508 C   0  0  0  0  0  0  0  0  0  0  0  0
   -1.1761   -3.1430   -2.5023 S   0  0  0  0  0  0  0  0  0  0  0  0
   -1.5809   -0.8086   -4.0151 C   0  0  0  0  0  0  0  0  0  0  0  0
   -1.8683    0.9004   -4.0250 S   0  0  0  0  0  0  0  0  0  0  0  0
   -1.8887    0.9874   -5.7541 C   0  0  0  0  0  0  0  0  0  0  0  0
   -1.6964   -0.2811   -6.3112 C   0  0  0  0  0  0  0  0  0  0  0  0
   -1.5275   -1.3045   -5.3230 C   0  0  0  0  0  0  0  0  0  0  0  0
   -1.3157   -2.6359   -5.7317 C   0  0  0  0  0  0  0  0  0  0  0  0
   -1.2757   -2.9517   -7.0623 C   0  0  0  0  0  0  0  0  0  0  0  0
   -1.0514   -4.3573   -7.5237 C   0  0  0  0  0  0  0  0  0  0  0  0
   -1.4549   -1.9334   -8.0297 C   0  0  0  0  0  0  0  0  0  0  0  0
   -1.6596   -0.6332   -7.6761 C   0  0  0  0  0  0  0  0  0  0  0  0
   -2.0364    2.2742   -6.3310 C   0  0  0  0  0  0  0  0  0  0  0  0
   -2.3177    3.4117   -5.6212 C   0  0  0  0  0  0  0  0  0  0  0  0
   -2.3093    4.5916   -6.3915 C   0  0  0  0  0  0  0  0  0  0  0  0
   -2.4972    5.9136   -5.9445 C   0  0  0  0  0  0  0  0  0  0  0  0
   -2.6440    6.1925   -4.5263 C   0  0  0  0  0  0  0  0  0  0  0  0
   -3.9768    7.1198   -3.9045 S   0  0  0  0  0  0  0  0  0  0  0  0
   -3.4468    6.9317   -2.2675 C   0  0  0  0  0  0  0  0  0  0  0  0
   -4.2394    7.4762   -1.1313 C   0  0  0  0  0  0  0  0  0  0  0  0
   -5.3377    6.4956   -0.7129 C   0  0  0  0  0  0  0  0  0  0  0  0
   -2.3020    6.1935   -2.2223 C   0  0  0  0  0  0  0  0  0  0  0  0
   -1.4777    5.7921   -0.7736 Cl  0  0  0  0  0  0  0  0  0  0  0  0
   -1.8400    5.7782   -3.4991 C   0  0  0  0  0  0  0  0  0  0  0  0
   -0.3694    4.9147   -3.7053 Cl  0  0  0  0  0  0  0  0  0  0  0  0
   -2.5162    6.9043   -6.9138 C   0  0  0  0  0  0  0  0  0  0  0  0
   -2.3000    6.6376   -8.2885 C   0  0  0  0  0  0  0  0  0  0  0  0
   -2.0239    5.3261   -8.7205 C   0  0  0  0  0  0  0  0  0  0  0  0
   -1.6820    5.0553  -10.1058 C   0  0  0  0  0  0  0  0  0  0  0  0
   -2.4817    3.8158  -11.0261 S   0  0  0  0  0  0  0  0  0  0  0  0
   -1.5429    4.1500  -12.4413 C   0  0  0  0  0  0  0  0  0  0  0  0
   -1.7739    3.4147  -13.7152 C   0  0  0  0  0  0  0  0  0  0  0  0
   -2.8540    4.0991  -14.5564 C   0  0  0  0  0  0  0  0  0  0  0  0
   -0.6693    5.1679  -12.2007 C   0  0  0  0  0  0  0  0  0  0  0  0
   -0.7387    5.6772  -10.8772 C   0  0  0  0  0  0  0  0  0  0  0  0
    0.3358    6.8865  -10.3004 Cl  0  0  0  0  0  0  0  0  0  0  0  0
    0.4268    5.7858  -13.3683 Cl  0  0  0  0  0  0  0  0  0  0  0  0
   -2.0640    4.3267   -7.7600 C   0  0  0  0  0  0  0  0  0  0  0  0
   -1.7900    2.6268   -8.0333 S   0  0  0  0  0  0  0  0  0  0  0  0
   -2.4036    7.8064   -9.0784 C   0  0  0  0  0  0  0  0  0  0  0  0
   -2.6292    8.9433   -8.3553 C   0  0  0  0  0  0  0  0  0  0  0  0
   -2.7668    8.6029   -6.6350 S   0  0  0  0  0  0  0  0  0  0  0  0
   -2.7634   10.2799   -8.8262 C   0  0  0  0  0  0  0  0  0  0  0  0
   -3.6713   11.4377   -7.9088 S   0  0  0  0  0  0  0  0  0  0  0  0
   -3.4257   12.6628   -9.0657 C   0  0  0  0  0  0  0  0  0  0  0  0
   -2.6581   12.2327  -10.1264 C   0  0  0  0  0  0  0  0  0  0  0  0
   -2.2605   10.8601   -9.9931 C   0  0  0  0  0  0  0  0  0  0  0  0
   -1.4073   10.2978  -10.9670 C   0  0  0  0  0  0  0  0  0  0  0  0
   -1.0091   11.0358  -12.0458 C   0  0  0  0  0  0  0  0  0  0  0  0
   -0.1014   10.4601  -13.0877 C   0  0  0  0  0  0  0  0  0  0  0  0
   -1.4505   12.3783  -12.1904 C   0  0  0  0  0  0  0  0  0  0  0  0
   -2.2416   12.9733  -11.2593 C   0  0  0  0  0  0  0  0  0  0  0  0
    4.3508  -10.4246   14.1497 H   0  0  0  0  0  0  0  0  0  0  0  0
    6.3675   -8.8600   15.2352 H   0  0  0  0  0  0  0  0  0  0  0  0
    8.9198   -6.5404   14.7170 H   0  0  0  0  0  0  0  0  0  0  0  0
    7.7639   -5.6988   15.7429 H   0  0  0  0  0  0  0  0  0  0  0  0
    8.1012   -7.4128   16.0197 H   0  0  0  0  0  0  0  0  0  0  0  0
    7.1971   -5.2354   13.1303 H   0  0  0  0  0  0  0  0  0  0  0  0
    5.4307   -5.6968   11.5073 H   0  0  0  0  0  0  0  0  0  0  0  0
    3.4112   -5.2750   10.9206 H   0  0  0  0  0  0  0  0  0  0  0  0
    4.8358    0.0719   11.3034 H   0  0  0  0  0  0  0  0  0  0  0  0
    5.9319   -1.3141   11.1368 H   0  0  0  0  0  0  0  0  0  0  0  0
    5.2828    0.7070    8.9351 H   0  0  0  0  0  0  0  0  0  0  0  0
    6.7842    0.6428    9.8638 H   0  0  0  0  0  0  0  0  0  0  0  0
    6.3682   -0.6755    8.7624 H   0  0  0  0  0  0  0  0  0  0  0  0
   -0.5047  -12.2796    5.1103 H   0  0  0  0  0  0  0  0  0  0  0  0
   -0.8118  -12.1081    6.8494 H   0  0  0  0  0  0  0  0  0  0  0  0
   -2.9465  -12.2773    5.5909 H   0  0  0  0  0  0  0  0  0  0  0  0
   -2.8039  -10.6906    6.3559 H   0  0  0  0  0  0  0  0  0  0  0  0
   -2.5033  -10.8669    4.6242 H   0  0  0  0  0  0  0  0  0  0  0  0
   -0.0158   -6.1423    4.7282 H   0  0  0  0  0  0  0  0  0  0  0  0
    0.1679   -5.2959    2.5211 H   0  0  0  0  0  0  0  0  0  0  0  0
   -0.1952   -9.8588   -0.4642 H   0  0  0  0  0  0  0  0  0  0  0  0
   -1.0124   -9.4124    1.0438 H   0  0  0  0  0  0  0  0  0  0  0  0
   -2.2974   -9.4097   -1.7310 H   0  0  0  0  0  0  0  0  0  0  0  0
   -3.1081   -8.9475   -0.2310 H   0  0  0  0  0  0  0  0  0  0  0  0
   -2.5691  -10.6143   -0.4676 H   0  0  0  0  0  0  0  0  0  0  0  0
   -1.0857    4.7182    2.2300 H   0  0  0  0  0  0  0  0  0  0  0  0
    0.4497    3.9745    2.7152 H   0  0  0  0  0  0  0  0  0  0  0  0
   -2.1714    3.8084    4.2834 H   0  0  0  0  0  0  0  0  0  0  0  0
   -0.7821    4.8163    4.7009 H   0  0  0  0  0  0  0  0  0  0  0  0
   -0.6470    3.0547    4.7617 H   0  0  0  0  0  0  0  0  0  0  0  0
   -1.3983    0.3358   -1.5187 H   0  0  0  0  0  0  0  0  0  0  0  0
   -1.1846   -3.4042   -4.9857 H   0  0  0  0  0  0  0  0  0  0  0  0
   -0.1894   -4.4037   -8.1879 H   0  0  0  0  0  0  0  0  0  0  0  0
   -1.9178   -4.7141   -8.0797 H   0  0  0  0  0  0  0  0  0  0  0  0
   -0.8804   -5.0214   -6.6809 H   0  0  0  0  0  0  0  0  0  0  0  0
   -1.4260   -2.2069   -9.0743 H   0  0  0  0  0  0  0  0  0  0  0  0
   -1.7962    0.1283   -8.4277 H   0  0  0  0  0  0  0  0  0  0  0  0
   -2.5370    3.3909   -4.5694 H   0  0  0  0  0  0  0  0  0  0  0  0
   -4.6913    8.4246   -1.4268 H   0  0  0  0  0  0  0  0  0  0  0  0
   -3.5686    7.6537   -0.2884 H   0  0  0  0  0  0  0  0  0  0  0  0
   -6.0124    6.3075   -1.5447 H   0  0  0  0  0  0  0  0  0  0  0  0
   -4.9005    5.5513   -0.3994 H   0  0  0  0  0  0  0  0  0  0  0  0
   -5.9090    6.9056    0.1155 H   0  0  0  0  0  0  0  0  0  0  0  0
   -0.8388    3.3847  -14.2779 H   0  0  0  0  0  0  0  0  0  0  0  0
   -2.0809    2.3921  -13.4905 H   0  0  0  0  0  0  0  0  0  0  0  0
   -3.0079    3.5520  -15.4826 H   0  0  0  0  0  0  0  0  0  0  0  0
   -3.7931    4.1326  -14.0096 H   0  0  0  0  0  0  0  0  0  0  0  0
   -2.5551    5.1160  -14.7978 H   0  0  0  0  0  0  0  0  0  0  0  0
   -2.3738    7.7890  -10.1510 H   0  0  0  0  0  0  0  0  0  0  0  0
   -3.8543   13.6336   -8.9155 H   0  0  0  0  0  0  0  0  0  0  0  0
   -1.0452    9.2909  -10.8410 H   0  0  0  0  0  0  0  0  0  0  0  0
   -0.5874   10.4756  -14.0630 H   0  0  0  0  0  0  0  0  0  0  0  0
    0.8110   11.0509  -13.1631 H   0  0  0  0  0  0  0  0  0  0  0  0
    0.1668    9.4345  -12.8480 H   0  0  0  0  0  0  0  0  0  0  0  0
   -1.1247   12.9323  -13.0589 H   0  0  0  0  0  0  0  0  0  0  0  0
   -2.5553   14.0016  -11.3588 H   0  0  0  0  0  0  0  0  0  0  0  0
  1  2  1  0  0  0  0
  2  3  1  0  0  0  0
  3  4  2  0  0  0  0
  4  5  1  0  0  0  0
  5  6  1  0  0  0  0
  6  7  2  0  0  0  0
  7  8  1  0  0  0  0
  7  9  1  0  0  0  0
  9 10  2  0  0  0  0
  3 11  1  0  0  0  0
 11 12  2  0  0  0  0
 12 13  1  0  0  0  0
 13 14  2  0  0  0  0
 14 15  1  0  0  0  0
 15 16  1  0  0  0  0
 16 17  1  0  0  0  0
 17 18  1  0  0  0  0
 18 19  1  0  0  0  0
 17 20  2  0  0  0  0
 20 21  1  0  0  0  0
 20 22  1  0  0  0  0
 22 23  1  0  0  0  0
 14 24  1  0  0  0  0
 24 25  2  0  0  0  0
 25 26  1  0  0  0  0
 26 27  1  0  0  0  0
 27 28  1  0  0  0  0
 28 29  1  0  0  0  0
 29 30  1  0  0  0  0
 30 31  1  0  0  0  0
 29 32  2  0  0  0  0
 32 33  1  0  0  0  0
 33 34  1  0  0  0  0
 32 35  1  0  0  0  0
 26 36  2  0  0  0  0
 36 37  1  0  0  0  0
 25 38  1  0  0  0  0
 38 39  2  0  0  0  0
 39 40  1  0  0  0  0
 39 41  1  0  0  0  0
 41 42  2  0  0  0  0
 42 43  1  0  0  0  0
 43 44  2  0  0  0  0
 44 45  1  0  0  0  0
 45 46  1  0  0  0  0
 46 47  1  0  0  0  0
 47 48  1  0  0  0  0
 48 49  1  0  0  0  0
 47 50  2  0  0  0  0
 50 51  1  0  0  0  0
 50 52  1  0  0  0  0
 52 53  1  0  0  0  0
 44 54  1  0  0  0  0
 54 55  2  0  0  0  0
 55 56  1  0  0  0  0
 56 57  1  0  0  0  0
 57 58  1  0  0  0  0
 58 59  1  0  0  0  0
 59 60  1  0  0  0  0
 60 61  1  0  0  0  0
 59 62  2  0  0  0  0
 62 63  1  0  0  0  0
 63 64  1  0  0  0  0
 62 65  1  0  0  0  0
 56 66  2  0  0  0  0
 66 67  1  0  0  0  0
 55 68  1  0  0  0  0
 68 69  2  0  0  0  0
 69 70  1  0  0  0  0
 69 71  1  0  0  0  0
 71 72  1  0  0  0  0
 72 73  1  0  0  0  0
 73 74  2  0  0  0  0
 74 75  1  0  0  0  0
 75 76  1  0  0  0  0
 76 77  2  0  0  0  0
 77 78  1  0  0  0  0
 77 79  1  0  0  0  0
 79 80  2  0  0  0  0
 73 81  1  0  0  0  0
 81 82  2  0  0  0  0
 82 83  1  0  0  0  0
 83 84  2  0  0  0  0
 84 85  1  0  0  0  0
 85 86  1  0  0  0  0
 86 87  1  0  0  0  0
 87 88  1  0  0  0  0
 88 89  1  0  0  0  0
 87 90  2  0  0  0  0
 90 91  1  0  0  0  0
 90 92  1  0  0  0  0
 92 93  1  0  0  0  0
 84 94  1  0  0  0  0
 94 95  2  0  0  0  0
 95 96  1  0  0  0  0
 96 97  1  0  0  0  0
 97 98  1  0  0  0  0
 98 99  1  0  0  0  0
 99100  1  0  0  0  0
100101  1  0  0  0  0
 99102  2  0  0  0  0
102103  1  0  0  0  0
103104  1  0  0  0  0
102105  1  0  0  0  0
 96106  2  0  0  0  0
106107  1  0  0  0  0
 95108  1  0  0  0  0
108109  2  0  0  0  0
109110  1  0  0  0  0
109111  1  0  0  0  0
111112  1  0  0  0  0
112113  1  0  0  0  0
113114  2  0  0  0  0
114115  1  0  0  0  0
115116  1  0  0  0  0
116117  2  0  0  0  0
117118  1  0  0  0  0
117119  1  0  0  0  0
119120  2  0  0  0  0
  5  1  2  0  0  0  0
 37 11  1  0  0  0  0
 67 41  1  0  0  0  0
 75 71  2  0  0  0  0
107 81  1  0  0  0  0
115111  2  0  0  0  0
 10  4  1  0  0  0  0
 36 13  1  0  0  0  0
 66 43  1  0  0  0  0
 80 74  1  0  0  0  0
106 83  1  0  0  0  0
120114  1  0  0  0  0
 22 15  2  0  0  0  0
 40 24  1  0  0  0  0
 52 45  2  0  0  0  0
 70 54  1  0  0  0  0
 92 85  2  0  0  0  0
110 94  1  0  0  0  0
 33 27  2  0  0  0  0
 63 57  2  0  0  0  0
103 97  2  0  0  0  0
  1121  1  0  0  0  0
  6122  1  0  0  0  0
  8123  1  0  0  0  0
  8124  1  0  0  0  0
  8125  1  0  0  0  0
  9126  1  0  0  0  0
 10127  1  0  0  0  0
 12128  1  0  0  0  0
 18129  1  0  0  0  0
 18130  1  0  0  0  0
 19131  1  0  0  0  0
 19132  1  0  0  0  0
 19133  1  0  0  0  0
 30134  1  0  0  0  0
 30135  1  0  0  0  0
 31136  1  0  0  0  0
 31137  1  0  0  0  0
 31138  1  0  0  0  0
 38139  1  0  0  0  0
 42140  1  0  0  0  0
 48141  1  0  0  0  0
 48142  1  0  0  0  0
 49143  1  0  0  0  0
 49144  1  0  0  0  0
 49145  1  0  0  0  0
 60146  1  0  0  0  0
 60147  1  0  0  0  0
 61148  1  0  0  0  0
 61149  1  0  0  0  0
 61150  1  0  0  0  0
 68151  1  0  0  0  0
 76152  1  0  0  0  0
 78153  1  0  0  0  0
 78154  1  0  0  0  0
 78155  1  0  0  0  0
 79156  1  0  0  0  0
 80157  1  0  0  0  0
 82158  1  0  0  0  0
 88159  1  0  0  0  0
 88160  1  0  0  0  0
 89161  1  0  0  0  0
 89162  1  0  0  0  0
 89163  1  0  0  0  0
100164  1  0  0  0  0
100165  1  0  0  0  0
101166  1  0  0  0  0
101167  1  0  0  0  0
101168  1  0  0  0  0
108169  1  0  0  0  0
113170  1  0  0  0  0
116171  1  0  0  0  0
118172  1  0  0  0  0
118173  1  0  0  0  0
118174  1  0  0  0  0
119175  1  0  0  0  0
120176  1  0  0  0  0
M  END
