
  xtb     03032220153D
 energy: -158.452582583918 gnorm: 0.000484911266 xtb: 6.4.1 (unknown)
106117  0     0  0            999 V2000
    6.9849    4.8503    5.8057 C   0  0  0  0  0  0  0  0  0  0  0  0
    5.3456    4.3882    5.6925 S   0  0  0  0  0  0  0  0  0  0  0  0
    5.6628    3.2834    4.3884 C   0  0  0  0  0  0  0  0  0  0  0  0
    7.0257    3.2619    4.0915 C   0  0  0  0  0  0  0  0  0  0  0  0
    7.7765    4.1793    4.9011 C   0  0  0  0  0  0  0  0  0  0  0  0
    9.1781    4.2869    4.7282 C   0  0  0  0  0  0  0  0  0  0  0  0
    9.8175    3.4912    3.8248 C   0  0  0  0  0  0  0  0  0  0  0  0
   11.2981    3.5690    3.6135 C   0  0  0  0  0  0  0  0  0  0  0  0
    9.0730    2.5407    3.0749 C   0  0  0  0  0  0  0  0  0  0  0  0
    7.7230    2.4185    3.1970 C   0  0  0  0  0  0  0  0  0  0  0  0
    4.5956    2.5478    3.8035 C   0  0  0  0  0  0  0  0  0  0  0  0
    3.3193    1.9365    4.8020 S   0  0  0  0  0  0  0  0  0  0  0  0
    2.5040    1.1671    3.4740 C   0  0  0  0  0  0  0  0  0  0  0  0
    3.1841    1.4323    2.2759 C   0  0  0  0  0  0  0  0  0  0  0  0
    4.3644    2.2210    2.4647 C   0  0  0  0  0  0  0  0  0  0  0  0
    5.1020    2.6655    1.3461 C   0  0  0  0  0  0  0  0  0  0  0  0
    4.7212    2.3121    0.0825 C   0  0  0  0  0  0  0  0  0  0  0  0
    5.4830    2.7661   -1.1235 C   0  0  0  0  0  0  0  0  0  0  0  0
    3.5652    1.5149   -0.0966 C   0  0  0  0  0  0  0  0  0  0  0  0
    2.8101    1.0954    0.9572 C   0  0  0  0  0  0  0  0  0  0  0  0
    1.3229    0.4233    3.7222 C   0  0  0  0  0  0  0  0  0  0  0  0
    0.6835   -0.4780    2.9184 C   0  0  0  0  0  0  0  0  0  0  0  0
   -0.5153   -0.9886    3.5406 C   0  0  0  0  0  0  0  0  0  0  0  0
   -0.6104   -0.3981    4.7621 C   0  0  0  0  0  0  0  0  0  0  0  0
    0.4848    0.6045    4.9666 C   0  0  0  0  0  0  0  0  0  0  0  0
    1.0064    0.2950    6.3676 C   0  0  0  0  0  0  0  0  0  0  0  0
   -0.2513    0.1579    7.2217 C   0  0  0  0  0  0  0  0  0  0  0  0
   -1.4974   -0.7424    6.2047 S   0  0  0  0  0  0  0  0  0  0  0  0
   -1.3737   -2.0185    2.9981 C   0  0  0  0  0  0  0  0  0  0  0  0
   -1.8046   -2.1219    1.7282 C   0  0  0  0  0  0  0  0  0  0  0  0
   -1.7222   -1.1490    0.6791 C   0  0  0  0  0  0  0  0  0  0  0  0
   -1.9200   -1.3866   -0.6463 C   0  0  0  0  0  0  0  0  0  0  0  0
   -1.8881   -0.1629   -1.4204 C   0  0  0  0  0  0  0  0  0  0  0  0
   -1.6418    0.8469   -0.5435 C   0  0  0  0  0  0  0  0  0  0  0  0
   -1.4544    0.3219    0.8451 C   0  0  0  0  0  0  0  0  0  0  0  0
   -2.3169    1.2228    1.7209 C   0  0  0  0  0  0  0  0  0  0  0  0
   -1.9646    2.6326    1.2558 C   0  0  0  0  0  0  0  0  0  0  0  0
   -1.8280    2.5668   -0.5825 S   0  0  0  0  0  0  0  0  0  0  0  0
   -2.0453   -0.0640   -2.8524 C   0  0  0  0  0  0  0  0  0  0  0  0
   -2.7782   -0.8785   -3.6201 C   0  0  0  0  0  0  0  0  0  0  0  0
   -3.7254   -1.8814   -3.1576 C   0  0  0  0  0  0  0  0  0  0  0  0
   -3.8032   -3.1778   -3.5308 C   0  0  0  0  0  0  0  0  0  0  0  0
   -4.9447   -3.8439   -2.9196 C   0  0  0  0  0  0  0  0  0  0  0  0
   -5.6010   -2.9015   -2.2005 C   0  0  0  0  0  0  0  0  0  0  0  0
   -4.9739   -1.5511   -2.3729 C   0  0  0  0  0  0  0  0  0  0  0  0
   -5.0240   -0.9149   -0.9898 C   0  0  0  0  0  0  0  0  0  0  0  0
   -6.4441   -1.1887   -0.5031 C   0  0  0  0  0  0  0  0  0  0  0  0
   -6.8539   -2.9145   -1.0035 S   0  0  0  0  0  0  0  0  0  0  0  0
   -5.2302   -5.2611   -2.9925 C   0  0  0  0  0  0  0  0  0  0  0  0
   -5.2116   -6.0324   -4.0938 C   0  0  0  0  0  0  0  0  0  0  0  0
   -5.1428   -5.6207   -5.4647 C   0  0  0  0  0  0  0  0  0  0  0  0
   -4.8638   -6.4210   -6.5278 C   0  0  0  0  0  0  0  0  0  0  0  0
   -5.0171   -5.7165   -7.7839 C   0  0  0  0  0  0  0  0  0  0  0  0
   -5.3919   -4.4462   -7.4715 C   0  0  0  0  0  0  0  0  0  0  0  0
   -5.4238   -4.2388   -5.9901 C   0  0  0  0  0  0  0  0  0  0  0  0
   -6.7445   -3.5226   -5.7328 C   0  0  0  0  0  0  0  0  0  0  0  0
   -6.7769   -2.4140   -6.7804 C   0  0  0  0  0  0  0  0  0  0  0  0
   -6.1128   -3.1371   -8.3418 S   0  0  0  0  0  0  0  0  0  0  0  0
   -4.8697   -6.2503   -9.1154 C   0  0  0  0  0  0  0  0  0  0  0  0
   -4.4858   -7.4870   -9.4162 C   0  0  0  0  0  0  0  0  0  0  0  0
    7.2821    5.5822    6.5296 H   0  0  0  0  0  0  0  0  0  0  0  0
    9.7230    4.9980    5.3317 H   0  0  0  0  0  0  0  0  0  0  0  0
   11.5199    3.8026    2.5726 H   0  0  0  0  0  0  0  0  0  0  0  0
   11.7629    2.6110    3.8447 H   0  0  0  0  0  0  0  0  0  0  0  0
   11.7431    4.3336    4.2452 H   0  0  0  0  0  0  0  0  0  0  0  0
    9.6106    1.8948    2.3958 H   0  0  0  0  0  0  0  0  0  0  0  0
    7.1814    1.6725    2.6359 H   0  0  0  0  0  0  0  0  0  0  0  0
    5.9526    3.3112    1.5026 H   0  0  0  0  0  0  0  0  0  0  0  0
    4.8374    3.3438   -1.7843 H   0  0  0  0  0  0  0  0  0  0  0  0
    6.3328    3.3812   -0.8390 H   0  0  0  0  0  0  0  0  0  0  0  0
    5.8463    1.9057   -1.6849 H   0  0  0  0  0  0  0  0  0  0  0  0
    3.2676    1.2587   -1.1031 H   0  0  0  0  0  0  0  0  0  0  0  0
    1.9135    0.5267    0.7769 H   0  0  0  0  0  0  0  0  0  0  0  0
    1.0640   -0.8931    2.0034 H   0  0  0  0  0  0  0  0  0  0  0  0
    0.0706    1.6220    4.9652 H   0  0  0  0  0  0  0  0  0  0  0  0
    1.5606   -0.6452    6.3505 H   0  0  0  0  0  0  0  0  0  0  0  0
    1.6502    1.0782    6.7653 H   0  0  0  0  0  0  0  0  0  0  0  0
   -0.6730    1.1332    7.4679 H   0  0  0  0  0  0  0  0  0  0  0  0
   -0.0925   -0.4078    8.1369 H   0  0  0  0  0  0  0  0  0  0  0  0
   -1.6713   -2.7781    3.7113 H   0  0  0  0  0  0  0  0  0  0  0  0
   -2.3393   -3.0230    1.4500 H   0  0  0  0  0  0  0  0  0  0  0  0
   -2.0857   -2.3513   -1.0933 H   0  0  0  0  0  0  0  0  0  0  0  0
   -0.4106    0.4727    1.1432 H   0  0  0  0  0  0  0  0  0  0  0  0
   -3.3736    1.0123    1.5437 H   0  0  0  0  0  0  0  0  0  0  0  0
   -2.1059    1.0982    2.7823 H   0  0  0  0  0  0  0  0  0  0  0  0
   -2.7150    3.3784    1.5090 H   0  0  0  0  0  0  0  0  0  0  0  0
   -0.9940    2.9458    1.6438 H   0  0  0  0  0  0  0  0  0  0  0  0
   -1.4726    0.7263   -3.3219 H   0  0  0  0  0  0  0  0  0  0  0  0
   -2.6990   -0.7786   -4.6976 H   0  0  0  0  0  0  0  0  0  0  0  0
   -3.0637   -3.7067   -4.1081 H   0  0  0  0  0  0  0  0  0  0  0  0
   -5.6078   -0.9471   -3.0407 H   0  0  0  0  0  0  0  0  0  0  0  0
   -4.3052   -1.4002   -0.3297 H   0  0  0  0  0  0  0  0  0  0  0  0
   -4.8179    0.1551   -1.0135 H   0  0  0  0  0  0  0  0  0  0  0  0
   -7.1684   -0.5288   -0.9837 H   0  0  0  0  0  0  0  0  0  0  0  0
   -6.5517   -1.1172    0.5772 H   0  0  0  0  0  0  0  0  0  0  0  0
   -5.4639   -5.7233   -2.0404 H   0  0  0  0  0  0  0  0  0  0  0  0
   -5.3246   -7.1022   -3.9615 H   0  0  0  0  0  0  0  0  0  0  0  0
   -4.5966   -7.4606   -6.4620 H   0  0  0  0  0  0  0  0  0  0  0  0
   -4.6070   -3.5659   -5.7048 H   0  0  0  0  0  0  0  0  0  0  0  0
   -7.5738   -4.2161   -5.8843 H   0  0  0  0  0  0  0  0  0  0  0  0
   -6.8089   -3.1114   -4.7262 H   0  0  0  0  0  0  0  0  0  0  0  0
   -7.7757   -2.0347   -6.9852 H   0  0  0  0  0  0  0  0  0  0  0  0
   -6.1241   -1.5855   -6.5011 H   0  0  0  0  0  0  0  0  0  0  0  0
   -5.1045   -5.5468   -9.9054 H   0  0  0  0  0  0  0  0  0  0  0  0
   -4.2376   -8.2111   -8.6592 H   0  0  0  0  0  0  0  0  0  0  0  0
   -4.4045   -7.8178  -10.4370 H   0  0  0  0  0  0  0  0  0  0  0  0
  1  2  1  0  0  0  0
  2  3  1  0  0  0  0
  3  4  2  0  0  0  0
  4  5  1  0  0  0  0
  5  6  1  0  0  0  0
  6  7  2  0  0  0  0
  7  8  1  0  0  0  0
  7  9  1  0  0  0  0
  9 10  2  0  0  0  0
  3 11  1  0  0  0  0
 11 12  1  0  0  0  0
 12 13  1  0  0  0  0
 13 14  2  0  0  0  0
 14 15  1  0  0  0  0
 15 16  1  0  0  0  0
 16 17  2  0  0  0  0
 17 18  1  0  0  0  0
 17 19  1  0  0  0  0
 19 20  2  0  0  0  0
 13 21  1  0  0  0  0
 21 22  2  0  0  0  0
 22 23  1  0  0  0  0
 23 24  2  0  0  0  0
 24 25  1  0  0  0  0
 25 26  1  0  0  0  0
 26 27  1  0  0  0  0
 27 28  1  0  0  0  0
 23 29  1  0  0  0  0
 29 30  2  0  0  0  0
 30 31  1  0  0  0  0
 31 32  2  0  0  0  0
 32 33  1  0  0  0  0
 33 34  2  0  0  0  0
 34 35  1  0  0  0  0
 35 36  1  0  0  0  0
 36 37  1  0  0  0  0
 37 38  1  0  0  0  0
 33 39  1  0  0  0  0
 39 40  2  0  0  0  0
 40 41  1  0  0  0  0
 41 42  2  0  0  0  0
 42 43  1  0  0  0  0
 43 44  2  0  0  0  0
 44 45  1  0  0  0  0
 45 46  1  0  0  0  0
 46 47  1  0  0  0  0
 47 48  1  0  0  0  0
 43 49  1  0  0  0  0
 49 50  2  0  0  0  0
 50 51  1  0  0  0  0
 51 52  2  0  0  0  0
 52 53  1  0  0  0  0
 53 54  2  0  0  0  0
 54 55  1  0  0  0  0
 55 56  1  0  0  0  0
 56 57  1  0  0  0  0
 57 58  1  0  0  0  0
 53 59  1  0  0  0  0
 59 60  2  0  0  0  0
  5  1  2  0  0  0  0
 15 11  2  0  0  0  0
 25 21  1  0  0  0  0
 35 31  1  0  0  0  0
 45 41  1  0  0  0  0
 55 51  1  0  0  0  0
 10  4  1  0  0  0  0
 20 14  1  0  0  0  0
 28 24  1  0  0  0  0
 38 34  1  0  0  0  0
 48 44  1  0  0  0  0
 58 54  1  0  0  0  0
  1 61  1  0  0  0  0
  6 62  1  0  0  0  0
  8 63  1  0  0  0  0
  8 64  1  0  0  0  0
  8 65  1  0  0  0  0
  9 66  1  0  0  0  0
 10 67  1  0  0  0  0
 16 68  1  0  0  0  0
 18 69  1  0  0  0  0
 18 70  1  0  0  0  0
 18 71  1  0  0  0  0
 19 72  1  0  0  0  0
 20 73  1  0  0  0  0
 22 74  1  0  0  0  0
 25 75  1  0  0  0  0
 26 76  1  0  0  0  0
 26 77  1  0  0  0  0
 27 78  1  0  0  0  0
 27 79  1  0  0  0  0
 29 80  1  0  0  0  0
 30 81  1  0  0  0  0
 32 82  1  0  0  0  0
 35 83  1  0  0  0  0
 36 84  1  0  0  0  0
 36 85  1  0  0  0  0
 37 86  1  0  0  0  0
 37 87  1  0  0  0  0
 39 88  1  0  0  0  0
 40 89  1  0  0  0  0
 42 90  1  0  0  0  0
 45 91  1  0  0  0  0
 46 92  1  0  0  0  0
 46 93  1  0  0  0  0
 47 94  1  0  0  0  0
 47 95  1  0  0  0  0
 49 96  1  0  0  0  0
 50 97  1  0  0  0  0
 52 98  1  0  0  0  0
 55 99  1  0  0  0  0
 56100  1  0  0  0  0
 56101  1  0  0  0  0
 57102  1  0  0  0  0
 57103  1  0  0  0  0
 59104  1  0  0  0  0
 60105  1  0  0  0  0
 60106  1  0  0  0  0
M  END
