118

C          3.41520       -2.49690        0.63340
C          3.85200       -1.94260       -0.54750
C          3.89660       -2.64100       -1.85780
C          4.36180       -0.61270       -0.31080
C          4.26030       -0.40080        1.04120
C          3.63070       -1.56860        1.67310
C          3.40300       -1.53520        3.02070
C          3.79660       -0.37810        3.72960
C          4.38820        0.65890        3.07240
O          4.62480        0.67870        1.76340
C          4.96730        0.28000       -1.28460
C          4.50890        0.55190       -2.51190
C          3.20970        0.18210       -3.04590
C          2.92150       -0.30080       -4.30970
C          3.92340       -0.63410       -5.35910
C          1.50140       -0.50980       -4.46890
C          0.92080       -0.09620       -3.28610
C          1.96790        0.34380       -2.36280
C          1.59700        0.86130       -1.15460
C          0.21870        0.90850       -0.84940
C         -0.69430        0.47110       -1.76280
O         -0.38180        0.00220       -2.96270
C          0.89160       -1.00540       -5.67370
C         -0.32650       -1.55460       -5.83900
C         -1.28060       -1.93050       -4.82650
C         -1.05980       -2.51350       -3.58650
C          0.23680       -3.07730       -3.13040
C         -2.31170       -2.68530       -2.88250
C         -3.29920       -2.26620       -3.74200
C         -2.69300       -1.78210       -4.98260
C         -3.50970       -1.30490       -5.96420
C         -4.90760       -1.32830       -5.73020
C         -5.39270       -1.78710       -4.54440
O         -4.63630       -2.23770       -3.54790
C         -2.51960       -3.12640       -1.52740
C         -1.60920       -2.98940       -0.54920
C         -1.76530       -3.30610        0.84130
C         -1.01870       -2.70410        1.85000
C          0.11280       -1.76880        1.62010
C         -1.45220       -3.16300        3.13980
C         -2.42350       -4.10930        2.90760
C         -2.67100       -4.21380        1.46390
C         -3.60900       -5.11290        1.04250
C         -4.30320       -5.86230        2.02080
C         -4.03380       -5.67810        3.34390
O         -3.12490       -4.82640        3.80480
C         -1.01310       -2.69270        4.43820
C         -0.80290       -1.41000        4.78290
C         -1.08560       -0.25540        3.97190
S          0.01790        1.08880        3.98430
C         -0.86900        1.95530        2.77350
C         -1.97940        1.22540        2.37510
C         -2.12460       -0.01450        3.08080
C         -3.26310       -0.81470        2.82670
C         -4.12260       -0.49190        1.81930
C         -5.29220       -1.36430        1.48140
C         -3.90110        0.68140        1.04900
C         -2.88280        1.53610        1.32940
C         -0.43390        3.24700        2.30390
C         -1.18930        4.40910        2.19990
C         -2.59130        4.54820        2.67410
C         -0.38430        5.47480        1.66040
C          0.87170        4.94210        1.45060
C          0.88410        3.54020        1.85480
C          2.03950        2.82510        1.71480
C          3.16330        3.49250        1.17980
C          3.06920        4.80680        0.82780
O          1.96780        5.53650        0.95070
C         -0.70680        6.85340        1.37560
C         -1.89550        7.44910        1.38170
H          3.00720       -3.48240        0.75810
H          4.82170       -2.40150       -2.37930
H          3.07450       -2.32600       -2.49830
H          3.82890       -3.71730       -1.71370
H          2.94020       -2.35940        3.54240
H          3.63320       -0.30360        4.79100
H          4.71420        1.56430        3.56290
H          5.89790        0.73730       -0.96420
H          5.13150        1.14420       -3.17390
H          3.75290       -0.03670       -6.25540
H          4.93160       -0.44670       -4.99980
H          3.84340       -1.68420       -5.64020
H          2.32480        1.23260       -0.45190
H         -0.12230        1.30750        0.09070
H         -1.75940        0.47720       -1.58350
H          1.49860       -0.87390       -6.56170
H         -0.65740       -1.73130       -6.85720
H          0.77760       -2.38860       -2.47860
H          0.06940       -3.99990       -2.57700
H          0.87350       -3.27750       -3.99090
H         -3.12520       -0.92130       -6.89680
H         -5.59360       -0.97830       -6.48270
H         -6.44620       -1.82210       -4.30750
H         -3.51300       -3.49370       -1.30690
H         -0.67270       -2.50890       -0.78880
H          0.67130       -1.60490        2.53680
H         -0.24950       -0.80940        1.25230
H          0.79460       -2.16940        0.86980
H         -3.82880       -5.26840       -0.00160
H         -5.05210       -6.57900        1.72940
H         -4.53650       -6.21340        4.13580
H         -0.86310       -3.45950        5.18920
H         -0.36330       -1.19900        5.75110
H         -3.43830       -1.68360        3.43970
H         -5.39200       -2.17590        2.19820
H         -5.15400       -1.79550        0.48970
H         -6.21630       -0.78720        1.47120
H         -4.58150        0.89670        0.23720
H         -2.73140        2.43920        0.75750
H         -2.89700        3.65580        3.21580
H         -3.27690        4.69280        1.83930
H         -2.67470        5.41110        3.33360
H          2.09970        1.78720        2.00560
H          4.09380        2.97050        1.03720
H          3.89260        5.37020        0.41420
H          0.16550        7.44210        1.11320
H         -2.81200        6.93730        1.60710
H         -1.98580        8.49560        1.14400
