
  xtb     03032208373D
 energy: -158.941393312125 gnorm: 0.000406365681 xtb: 6.4.1 (unknown)
 88 99  0     0  0            999 V2000
    3.7693    1.8163    4.0350 C   0  0  0  0  0  0  0  0  0  0  0  0
    2.6721    1.0233    4.0075 O   0  0  0  0  0  0  0  0  0  0  0  0
    1.6291    1.8374    3.7589 C   0  0  0  0  0  0  0  0  0  0  0  0
    0.2476    1.6662    3.5930 C   0  0  0  0  0  0  0  0  0  0  0  0
   -0.3736    2.8609    3.3194 C   0  0  0  0  0  0  0  0  0  0  0  0
    0.7558    4.2190    3.3102 S   0  0  0  0  0  0  0  0  0  0  0  0
    2.0692    3.1555    3.6302 C   0  0  0  0  0  0  0  0  0  0  0  0
    3.4708    3.1286    3.8114 C   0  0  0  0  0  0  0  0  0  0  0  0
   -1.7613    3.1549    3.1133 C   0  0  0  0  0  0  0  0  0  0  0  0
   -2.7360    2.3575    2.6273 C   0  0  0  0  0  0  0  0  0  0  0  0
   -2.6233    1.0682    2.0213 C   0  0  0  0  0  0  0  0  0  0  0  0
   -3.7803    0.3424    1.8753 O   0  0  0  0  0  0  0  0  0  0  0  0
   -3.4470   -0.7892    1.2273 C   0  0  0  0  0  0  0  0  0  0  0  0
   -4.1094   -1.9398    0.7998 C   0  0  0  0  0  0  0  0  0  0  0  0
   -3.2458   -2.8285    0.1768 C   0  0  0  0  0  0  0  0  0  0  0  0
   -1.5957   -2.2160    0.1177 S   0  0  0  0  0  0  0  0  0  0  0  0
   -2.0783   -0.7836    0.9293 C   0  0  0  0  0  0  0  0  0  0  0  0
   -1.5544    0.4058    1.4456 C   0  0  0  0  0  0  0  0  0  0  0  0
   -3.6897   -4.0375   -0.4363 C   0  0  0  0  0  0  0  0  0  0  0  0
   -3.0220   -5.0019   -1.1148 C   0  0  0  0  0  0  0  0  0  0  0  0
   -1.6140   -5.1598   -1.2838 C   0  0  0  0  0  0  0  0  0  0  0  0
   -0.7557   -4.5621   -0.4091 O   0  0  0  0  0  0  0  0  0  0  0  0
    0.4853   -4.8186   -0.8398 C   0  0  0  0  0  0  0  0  0  0  0  0
    1.7628   -4.4351   -0.4327 C   0  0  0  0  0  0  0  0  0  0  0  0
    2.7238   -4.9128   -1.2936 C   0  0  0  0  0  0  0  0  0  0  0  0
    2.0339   -5.9160   -2.5777 S   0  0  0  0  0  0  0  0  0  0  0  0
    0.4418   -5.6181   -1.9879 C   0  0  0  0  0  0  0  0  0  0  0  0
   -0.9148   -5.8517   -2.2616 C   0  0  0  0  0  0  0  0  0  0  0  0
    4.1403   -4.7326   -1.2404 C   0  0  0  0  0  0  0  0  0  0  0  0
    4.8215   -3.6611   -0.7661 C   0  0  0  0  0  0  0  0  0  0  0  0
    4.3544   -2.3659   -0.4058 C   0  0  0  0  0  0  0  0  0  0  0  0
    2.8503   -1.6986   -0.9479 S   0  0  0  0  0  0  0  0  0  0  0  0
    3.1731   -0.1504   -0.2423 C   0  0  0  0  0  0  0  0  0  0  0  0
    4.4227   -0.1329    0.3867 C   0  0  0  0  0  0  0  0  0  0  0  0
    5.0920   -1.3932    0.2899 C   0  0  0  0  0  0  0  0  0  0  0  0
    6.3579   -1.5520    0.8894 C   0  0  0  0  0  0  0  0  0  0  0  0
    6.9567   -0.5053    1.5358 C   0  0  0  0  0  0  0  0  0  0  0  0
    8.3047   -0.6440    2.1730 C   0  0  0  0  0  0  0  0  0  0  0  0
    6.2973    0.7453    1.5967 C   0  0  0  0  0  0  0  0  0  0  0  0
    5.0664    0.9358    1.0420 C   0  0  0  0  0  0  0  0  0  0  0  0
    2.1588    0.8333   -0.3589 C   0  0  0  0  0  0  0  0  0  0  0  0
    1.1191    0.5257   -1.1987 O   0  0  0  0  0  0  0  0  0  0  0  0
    0.2397    1.5373   -1.1140 C   0  0  0  0  0  0  0  0  0  0  0  0
   -1.0099    1.8093   -1.6708 C   0  0  0  0  0  0  0  0  0  0  0  0
   -1.5270    2.9910   -1.1833 C   0  0  0  0  0  0  0  0  0  0  0  0
   -0.4204    3.7929   -0.0614 S   0  0  0  0  0  0  0  0  0  0  0  0
    0.7092    2.5068   -0.2184 C   0  0  0  0  0  0  0  0  0  0  0  0
    1.9466    2.0563    0.2613 C   0  0  0  0  0  0  0  0  0  0  0  0
   -2.7402    3.6780   -1.4812 C   0  0  0  0  0  0  0  0  0  0  0  0
   -3.8958    3.2217   -2.0148 C   0  0  0  0  0  0  0  0  0  0  0  0
   -4.3302    1.8909   -2.2963 C   0  0  0  0  0  0  0  0  0  0  0  0
   -5.4398    1.7882   -3.0997 O   0  0  0  0  0  0  0  0  0  0  0  0
   -5.7322    0.4821   -3.1911 C   0  0  0  0  0  0  0  0  0  0  0  0
   -6.7007   -0.2815   -3.8534 C   0  0  0  0  0  0  0  0  0  0  0  0
   -6.5309   -1.6230   -3.6015 C   0  0  0  0  0  0  0  0  0  0  0  0
   -5.1685   -1.9500   -2.5340 S   0  0  0  0  0  0  0  0  0  0  0  0
   -4.8276   -0.2671   -2.4326 C   0  0  0  0  0  0  0  0  0  0  0  0
   -3.9290    0.6411   -1.8577 C   0  0  0  0  0  0  0  0  0  0  0  0
   -7.3338   -2.6959   -4.1145 C   0  0  0  0  0  0  0  0  0  0  0  0
   -7.1244   -3.9876   -3.8706 C   0  0  0  0  0  0  0  0  0  0  0  0
    4.7067    1.3297    4.2168 H   0  0  0  0  0  0  0  0  0  0  0  0
   -0.2728    0.7349    3.7061 H   0  0  0  0  0  0  0  0  0  0  0  0
    4.1536    3.9519    3.7832 H   0  0  0  0  0  0  0  0  0  0  0  0
   -2.0438    4.1617    3.3935 H   0  0  0  0  0  0  0  0  0  0  0  0
   -3.7521    2.7286    2.6544 H   0  0  0  0  0  0  0  0  0  0  0  0
   -5.1588   -2.1303    0.9261 H   0  0  0  0  0  0  0  0  0  0  0  0
   -0.5446    0.7501    1.3925 H   0  0  0  0  0  0  0  0  0  0  0  0
   -4.7665   -4.1475   -0.3892 H   0  0  0  0  0  0  0  0  0  0  0  0
   -3.6095   -5.7577   -1.6175 H   0  0  0  0  0  0  0  0  0  0  0  0
    1.9765   -3.8614    0.4482 H   0  0  0  0  0  0  0  0  0  0  0  0
   -1.3386   -6.4154   -3.0666 H   0  0  0  0  0  0  0  0  0  0  0  0
    4.7208   -5.5597   -1.6287 H   0  0  0  0  0  0  0  0  0  0  0  0
    5.8969   -3.7700   -0.6953 H   0  0  0  0  0  0  0  0  0  0  0  0
    6.8540   -2.5094    0.8359 H   0  0  0  0  0  0  0  0  0  0  0  0
    8.6710   -1.6642    2.0954 H   0  0  0  0  0  0  0  0  0  0  0  0
    8.2581   -0.3683    3.2258 H   0  0  0  0  0  0  0  0  0  0  0  0
    9.0200    0.0202    1.6884 H   0  0  0  0  0  0  0  0  0  0  0  0
    6.7941    1.5651    2.0956 H   0  0  0  0  0  0  0  0  0  0  0  0
    4.5903    1.9007    1.0914 H   0  0  0  0  0  0  0  0  0  0  0  0
   -1.4878    1.2094   -2.4199 H   0  0  0  0  0  0  0  0  0  0  0  0
    2.5794    2.5411    0.9726 H   0  0  0  0  0  0  0  0  0  0  0  0
   -2.7069    4.7338   -1.2413 H   0  0  0  0  0  0  0  0  0  0  0  0
   -4.6485    3.9595   -2.2626 H   0  0  0  0  0  0  0  0  0  0  0  0
   -7.4778    0.1152   -4.4795 H   0  0  0  0  0  0  0  0  0  0  0  0
   -3.1274    0.4284   -1.1848 H   0  0  0  0  0  0  0  0  0  0  0  0
   -8.1582   -2.3834   -4.7428 H   0  0  0  0  0  0  0  0  0  0  0  0
   -7.7588   -4.7515   -4.2830 H   0  0  0  0  0  0  0  0  0  0  0  0
   -6.3051   -4.3139   -3.2511 H   0  0  0  0  0  0  0  0  0  0  0  0
  1  2  1  0  0  0  0
  2  3  1  0  0  0  0
  3  4  1  0  0  0  0
  4  5  2  0  0  0  0
  5  6  1  0  0  0  0
  6  7  1  0  0  0  0
  7  8  1  0  0  0  0
  5  9  1  0  0  0  0
  9 10  2  0  0  0  0
 10 11  1  0  0  0  0
 11 12  1  0  0  0  0
 12 13  1  0  0  0  0
 13 14  1  0  0  0  0
 14 15  2  0  0  0  0
 15 16  1  0  0  0  0
 16 17  1  0  0  0  0
 17 18  1  0  0  0  0
 15 19  1  0  0  0  0
 19 20  2  0  0  0  0
 20 21  1  0  0  0  0
 21 22  1  0  0  0  0
 22 23  1  0  0  0  0
 23 24  1  0  0  0  0
 24 25  2  0  0  0  0
 25 26  1  0  0  0  0
 26 27  1  0  0  0  0
 27 28  1  0  0  0  0
 25 29  1  0  0  0  0
 29 30  2  0  0  0  0
 30 31  1  0  0  0  0
 31 32  1  0  0  0  0
 32 33  1  0  0  0  0
 33 34  2  0  0  0  0
 34 35  1  0  0  0  0
 35 36  1  0  0  0  0
 36 37  2  0  0  0  0
 37 38  1  0  0  0  0
 37 39  1  0  0  0  0
 39 40  2  0  0  0  0
 33 41  1  0  0  0  0
 41 42  1  0  0  0  0
 42 43  1  0  0  0  0
 43 44  1  0  0  0  0
 44 45  2  0  0  0  0
 45 46  1  0  0  0  0
 46 47  1  0  0  0  0
 47 48  1  0  0  0  0
 45 49  1  0  0  0  0
 49 50  2  0  0  0  0
 50 51  1  0  0  0  0
 51 52  1  0  0  0  0
 52 53  1  0  0  0  0
 53 54  1  0  0  0  0
 54 55  2  0  0  0  0
 55 56  1  0  0  0  0
 56 57  1  0  0  0  0
 57 58  1  0  0  0  0
 55 59  1  0  0  0  0
 59 60  2  0  0  0  0
  8  1  2  0  0  0  0
 18 11  2  0  0  0  0
 28 21  2  0  0  0  0
 35 31  2  0  0  0  0
 48 41  2  0  0  0  0
 58 51  2  0  0  0  0
  7  3  2  0  0  0  0
 17 13  2  0  0  0  0
 27 23  2  0  0  0  0
 40 34  1  0  0  0  0
 47 43  2  0  0  0  0
 57 53  2  0  0  0  0
  1 61  1  0  0  0  0
  4 62  1  0  0  0  0
  8 63  1  0  0  0  0
  9 64  1  0  0  0  0
 10 65  1  0  0  0  0
 14 66  1  0  0  0  0
 18 67  1  0  0  0  0
 19 68  1  0  0  0  0
 20 69  1  0  0  0  0
 24 70  1  0  0  0  0
 28 71  1  0  0  0  0
 29 72  1  0  0  0  0
 30 73  1  0  0  0  0
 36 74  1  0  0  0  0
 38 75  1  0  0  0  0
 38 76  1  0  0  0  0
 38 77  1  0  0  0  0
 39 78  1  0  0  0  0
 40 79  1  0  0  0  0
 44 80  1  0  0  0  0
 48 81  1  0  0  0  0
 49 82  1  0  0  0  0
 50 83  1  0  0  0  0
 54 84  1  0  0  0  0
 58 85  1  0  0  0  0
 59 86  1  0  0  0  0
 60 87  1  0  0  0  0
 60 88  1  0  0  0  0
M  END
