
  xtb     03022211493D
 energy: -449.062507962680 gnorm: 0.000669889089 xtb: 6.4.1 (unknown)
228254  0     0  0            999 V2000
   -6.8711  -19.4939    0.3237 C   0  0  0  0  0  0  0  0  0  0  0  0
   -7.1707  -18.5256    1.2133 C   0  0  0  0  0  0  0  0  0  0  0  0
   -7.1414  -17.2205    0.6410 C   0  0  0  0  0  0  0  0  0  0  0  0
   -7.3506  -15.9868    1.2786 C   0  0  0  0  0  0  0  0  0  0  0  0
   -7.7563  -15.9162    2.6726 C   0  0  0  0  0  0  0  0  0  0  0  0
   -6.8809  -14.9512    3.8235 S   0  0  0  0  0  0  0  0  0  0  0  0
   -7.9387  -15.3968    5.1186 C   0  0  0  0  0  0  0  0  0  0  0  0
   -7.6964  -14.9187    6.5074 C   0  0  0  0  0  0  0  0  0  0  0  0
   -6.6305  -15.7704    7.2008 C   0  0  0  0  0  0  0  0  0  0  0  0
   -8.9066  -16.2451    4.6701 C   0  0  0  0  0  0  0  0  0  0  0  0
  -10.1416  -16.9021    5.6645 Cl  0  0  0  0  0  0  0  0  0  0  0  0
   -8.8095  -16.5386    3.2831 C   0  0  0  0  0  0  0  0  0  0  0  0
   -9.9579  -17.5162    2.4629 Cl  0  0  0  0  0  0  0  0  0  0  0  0
   -7.1431  -14.8421    0.5201 C   0  0  0  0  0  0  0  0  0  0  0  0
   -6.7806  -14.8840   -0.8476 C   0  0  0  0  0  0  0  0  0  0  0  0
   -6.6161  -16.1179   -1.4994 C   0  0  0  0  0  0  0  0  0  0  0  0
   -6.2619  -16.1727   -2.9079 C   0  0  0  0  0  0  0  0  0  0  0  0
   -4.8951  -15.2895   -3.5239 S   0  0  0  0  0  0  0  0  0  0  0  0
   -5.1850  -15.8120   -5.1485 C   0  0  0  0  0  0  0  0  0  0  0  0
   -4.3395  -15.3171   -6.2695 C   0  0  0  0  0  0  0  0  0  0  0  0
   -4.5574  -13.8205   -6.5018 C   0  0  0  0  0  0  0  0  0  0  0  0
   -6.2744  -16.6290   -5.1925 C   0  0  0  0  0  0  0  0  0  0  0  0
   -6.8837  -16.8414   -3.9251 C   0  0  0  0  0  0  0  0  0  0  0  0
   -8.3119  -17.7693   -3.7391 Cl  0  0  0  0  0  0  0  0  0  0  0  0
   -6.8821  -17.3439   -6.6291 Cl  0  0  0  0  0  0  0  0  0  0  0  0
   -6.7925  -17.2622   -0.7308 C   0  0  0  0  0  0  0  0  0  0  0  0
   -6.5350  -18.8987   -1.2637 S   0  0  0  0  0  0  0  0  0  0  0  0
   -6.6546  -13.5855   -1.3972 C   0  0  0  0  0  0  0  0  0  0  0  0
   -6.8928  -12.5871   -0.5013 C   0  0  0  0  0  0  0  0  0  0  0  0
   -7.3181  -13.2018    1.0826 S   0  0  0  0  0  0  0  0  0  0  0  0
   -6.7934  -11.1875   -0.7512 C   0  0  0  0  0  0  0  0  0  0  0  0
   -7.0641  -10.1484    0.0875 C   0  0  0  0  0  0  0  0  0  0  0  0
   -6.8116   -8.8787   -0.4889 C   0  0  0  0  0  0  0  0  0  0  0  0
   -6.9237   -7.6138    0.1146 C   0  0  0  0  0  0  0  0  0  0  0  0
   -7.5269   -7.4615    1.4257 C   0  0  0  0  0  0  0  0  0  0  0  0
   -6.7590   -6.5514    2.6924 S   0  0  0  0  0  0  0  0  0  0  0  0
   -8.0563   -6.8461    3.7968 C   0  0  0  0  0  0  0  0  0  0  0  0
   -8.0055   -6.3552    5.2013 C   0  0  0  0  0  0  0  0  0  0  0  0
   -7.3851   -7.4082    6.1226 C   0  0  0  0  0  0  0  0  0  0  0  0
   -9.0198   -7.6093    3.2063 C   0  0  0  0  0  0  0  0  0  0  0  0
  -10.4636   -8.1008    3.9924 Cl  0  0  0  0  0  0  0  0  0  0  0  0
   -8.7261   -7.9577    1.8617 C   0  0  0  0  0  0  0  0  0  0  0  0
   -9.8220   -8.8407    0.8789 Cl  0  0  0  0  0  0  0  0  0  0  0  0
   -6.4241   -6.5321   -0.5994 C   0  0  0  0  0  0  0  0  0  0  0  0
   -5.8956   -6.6440   -1.9099 C   0  0  0  0  0  0  0  0  0  0  0  0
   -5.8828   -7.8944   -2.5548 C   0  0  0  0  0  0  0  0  0  0  0  0
   -5.4051   -8.0696   -3.9157 C   0  0  0  0  0  0  0  0  0  0  0  0
   -3.8518   -7.4788   -4.4337 S   0  0  0  0  0  0  0  0  0  0  0  0
   -4.0248   -8.1654   -6.0157 C   0  0  0  0  0  0  0  0  0  0  0  0
   -2.9495   -8.0383   -7.0373 C   0  0  0  0  0  0  0  0  0  0  0  0
   -1.6399   -8.6615   -6.5553 C   0  0  0  0  0  0  0  0  0  0  0  0
   -5.2235   -8.8031   -6.1215 C   0  0  0  0  0  0  0  0  0  0  0  0
   -6.0101   -8.7466   -4.9391 C   0  0  0  0  0  0  0  0  0  0  0  0
   -7.5956   -9.3930   -4.8725 Cl  0  0  0  0  0  0  0  0  0  0  0  0
   -5.7617   -9.6132   -7.5352 Cl  0  0  0  0  0  0  0  0  0  0  0  0
   -6.3168   -8.9863   -1.8120 C   0  0  0  0  0  0  0  0  0  0  0  0
   -6.2173  -10.6474   -2.3143 S   0  0  0  0  0  0  0  0  0  0  0  0
   -5.4288   -5.4003   -2.3980 C   0  0  0  0  0  0  0  0  0  0  0  0
   -5.5727   -4.3770   -1.5054 C   0  0  0  0  0  0  0  0  0  0  0  0
   -6.3543   -4.8917   -0.0272 S   0  0  0  0  0  0  0  0  0  0  0  0
   -5.0787   -3.0425   -1.6234 C   0  0  0  0  0  0  0  0  0  0  0  0
   -4.2287   -2.5598   -2.5773 C   0  0  0  0  0  0  0  0  0  0  0  0
   -3.7969   -1.2350   -2.3304 C   0  0  0  0  0  0  0  0  0  0  0  0
   -2.8396   -0.4884   -3.0431 C   0  0  0  0  0  0  0  0  0  0  0  0
   -2.1762   -1.0242   -4.2198 C   0  0  0  0  0  0  0  0  0  0  0  0
   -1.4018   -2.5822   -4.1923 S   0  0  0  0  0  0  0  0  0  0  0  0
   -0.8684   -2.4365   -5.8330 C   0  0  0  0  0  0  0  0  0  0  0  0
   -0.1277   -3.5445   -6.4957 C   0  0  0  0  0  0  0  0  0  0  0  0
   -1.0497   -4.7353   -6.7654 C   0  0  0  0  0  0  0  0  0  0  0  0
   -1.2787   -1.2484   -6.3585 C   0  0  0  0  0  0  0  0  0  0  0  0
   -0.9507   -0.7442   -7.9656 Cl  0  0  0  0  0  0  0  0  0  0  0  0
   -2.0129   -0.4421   -5.4463 C   0  0  0  0  0  0  0  0  0  0  0  0
   -2.6917    1.0647   -5.8989 Cl  0  0  0  0  0  0  0  0  0  0  0  0
   -2.5090    0.7606   -2.5334 C   0  0  0  0  0  0  0  0  0  0  0  0
   -3.1248    1.3043   -1.3788 C   0  0  0  0  0  0  0  0  0  0  0  0
   -4.1011    0.5721   -0.6812 C   0  0  0  0  0  0  0  0  0  0  0  0
   -4.6988    1.0984    0.5346 C   0  0  0  0  0  0  0  0  0  0  0  0
   -3.7029    1.6998    1.8292 S   0  0  0  0  0  0  0  0  0  0  0  0
   -5.0732    2.1160    2.8003 C   0  0  0  0  0  0  0  0  0  0  0  0
   -4.8935    2.7873    4.1169 C   0  0  0  0  0  0  0  0  0  0  0  0
   -4.4124    4.2295    3.9392 C   0  0  0  0  0  0  0  0  0  0  0  0
   -6.2266    1.7948    2.1498 C   0  0  0  0  0  0  0  0  0  0  0  0
   -6.0193    1.2098    0.8701 C   0  0  0  0  0  0  0  0  0  0  0  0
   -7.3167    0.7815   -0.1635 Cl  0  0  0  0  0  0  0  0  0  0  0  0
   -7.7964    2.0632    2.7890 Cl  0  0  0  0  0  0  0  0  0  0  0  0
   -4.4015   -0.6930   -1.1676 C   0  0  0  0  0  0  0  0  0  0  0  0
   -5.4462   -1.8501   -0.3993 S   0  0  0  0  0  0  0  0  0  0  0  0
   -2.5786    2.5616   -1.0351 C   0  0  0  0  0  0  0  0  0  0  0  0
   -1.5408    2.9446   -1.8322 C   0  0  0  0  0  0  0  0  0  0  0  0
   -1.2356    1.7977   -3.1178 S   0  0  0  0  0  0  0  0  0  0  0  0
   -0.7001    4.0731   -1.6132 C   0  0  0  0  0  0  0  0  0  0  0  0
    0.4620    4.4138   -2.2383 C   0  0  0  0  0  0  0  0  0  0  0  0
    1.1265    5.5095   -1.6327 C   0  0  0  0  0  0  0  0  0  0  0  0
    2.3671    6.0733   -1.9835 C   0  0  0  0  0  0  0  0  0  0  0  0
    3.0904    5.6279   -3.1631 C   0  0  0  0  0  0  0  0  0  0  0  0
    2.3243    5.6286   -4.7258 S   0  0  0  0  0  0  0  0  0  0  0  0
    3.7547    5.0612   -5.5165 C   0  0  0  0  0  0  0  0  0  0  0  0
    3.8007    4.8828   -6.9937 C   0  0  0  0  0  0  0  0  0  0  0  0
    4.0927    6.2114   -7.6953 C   0  0  0  0  0  0  0  0  0  0  0  0
    4.7575    4.8885   -4.6104 C   0  0  0  0  0  0  0  0  0  0  0  0
    6.3304    4.3378   -5.0175 Cl  0  0  0  0  0  0  0  0  0  0  0  0
    4.3847    5.2015   -3.2752 C   0  0  0  0  0  0  0  0  0  0  0  0
    5.4480    4.9641   -1.9525 Cl  0  0  0  0  0  0  0  0  0  0  0  0
    2.8630    7.0679   -1.1524 C   0  0  0  0  0  0  0  0  0  0  0  0
    2.1692    7.5376   -0.0077 C   0  0  0  0  0  0  0  0  0  0  0  0
    0.8937    7.0291    0.2980 C   0  0  0  0  0  0  0  0  0  0  0  0
    0.1087    7.5656    1.3944 C   0  0  0  0  0  0  0  0  0  0  0  0
   -0.6943    6.5278    2.5371 S   0  0  0  0  0  0  0  0  0  0  0  0
   -1.3603    7.8671    3.4109 C   0  0  0  0  0  0  0  0  0  0  0  0
   -2.2372    7.6541    4.5958 C   0  0  0  0  0  0  0  0  0  0  0  0
   -1.5936    6.7271    5.6247 C   0  0  0  0  0  0  0  0  0  0  0  0
   -0.9725    9.0416    2.8392 C   0  0  0  0  0  0  0  0  0  0  0  0
   -0.1463    8.8761    1.6954 C   0  0  0  0  0  0  0  0  0  0  0  0
    0.3699   10.2108    0.7465 Cl  0  0  0  0  0  0  0  0  0  0  0  0
   -1.4300   10.5931    3.4165 Cl  0  0  0  0  0  0  0  0  0  0  0  0
    0.4236    5.9978   -0.5051 C   0  0  0  0  0  0  0  0  0  0  0  0
   -1.0635    5.1314   -0.2625 S   0  0  0  0  0  0  0  0  0  0  0  0
    2.9289    8.4763    0.7274 C   0  0  0  0  0  0  0  0  0  0  0  0
    4.1324    8.7786    0.1532 C   0  0  0  0  0  0  0  0  0  0  0  0
    4.3806    7.8930   -1.3425 S   0  0  0  0  0  0  0  0  0  0  0  0
    5.1738    9.6133    0.6406 C   0  0  0  0  0  0  0  0  0  0  0  0
    6.8015    9.2916    0.1624 S   0  0  0  0  0  0  0  0  0  0  0  0
    7.4471   10.5128    1.2011 C   0  0  0  0  0  0  0  0  0  0  0  0
    6.4194   11.1957    1.8646 C   0  0  0  0  0  0  0  0  0  0  0  0
    5.1216   10.6832    1.5422 C   0  0  0  0  0  0  0  0  0  0  0  0
    3.9731   11.2977    2.0801 C   0  0  0  0  0  0  0  0  0  0  0  0
    4.0919   12.3587    2.9350 C   0  0  0  0  0  0  0  0  0  0  0  0
    2.8871   13.0247    3.5215 C   0  0  0  0  0  0  0  0  0  0  0  0
    5.3791   12.8514    3.2576 C   0  0  0  0  0  0  0  0  0  0  0  0
    6.5122   12.3044    2.7327 C   0  0  0  0  0  0  0  0  0  0  0  0
    8.8618   10.6390    1.2831 C   0  0  0  0  0  0  0  0  0  0  0  0
    9.6447   11.2140    2.2445 C   0  0  0  0  0  0  0  0  0  0  0  0
   11.0346   11.0740    2.0076 C   0  0  0  0  0  0  0  0  0  0  0  0
   12.1021   11.5648    2.7791 C   0  0  0  0  0  0  0  0  0  0  0  0
   11.8751   12.3195    4.0006 C   0  0  0  0  0  0  0  0  0  0  0  0
   10.8946   11.6851    5.2904 S   0  0  0  0  0  0  0  0  0  0  0  0
   11.1595   13.0768    6.2849 C   0  0  0  0  0  0  0  0  0  0  0  0
   10.5030   13.2100    7.6145 C   0  0  0  0  0  0  0  0  0  0  0  0
    9.0669   13.7182    7.4650 C   0  0  0  0  0  0  0  0  0  0  0  0
   11.9535   13.9749    5.6375 C   0  0  0  0  0  0  0  0  0  0  0  0
   12.4271   15.4852    6.2999 Cl  0  0  0  0  0  0  0  0  0  0  0  0
   12.3670   13.5472    4.3466 C   0  0  0  0  0  0  0  0  0  0  0  0
   13.3152   14.5317    3.3135 Cl  0  0  0  0  0  0  0  0  0  0  0  0
   13.3880   11.2818    2.3310 C   0  0  0  0  0  0  0  0  0  0  0  0
   13.6506   10.5539    1.1460 C   0  0  0  0  0  0  0  0  0  0  0  0
   12.5846   10.1039    0.3514 C   0  0  0  0  0  0  0  0  0  0  0  0
   12.8054    9.3943   -0.8980 C   0  0  0  0  0  0  0  0  0  0  0  0
   12.0358    7.8686   -1.2158 S   0  0  0  0  0  0  0  0  0  0  0  0
   12.7419    7.7521   -2.7916 C   0  0  0  0  0  0  0  0  0  0  0  0
   12.4208    6.6077   -3.6879 C   0  0  0  0  0  0  0  0  0  0  0  0
   11.0016    6.7337   -4.2464 C   0  0  0  0  0  0  0  0  0  0  0  0
   13.5195    8.8423   -3.0440 C   0  0  0  0  0  0  0  0  0  0  0  0
   13.5630    9.7733   -1.9708 C   0  0  0  0  0  0  0  0  0  0  0  0
   14.4195   11.2576   -2.0683 Cl  0  0  0  0  0  0  0  0  0  0  0  0
   14.3782    9.0924   -4.5094 Cl  0  0  0  0  0  0  0  0  0  0  0  0
   11.3018   10.3609    0.8143 C   0  0  0  0  0  0  0  0  0  0  0  0
    9.8300    9.8950    0.0168 S   0  0  0  0  0  0  0  0  0  0  0  0
   15.0462   10.3303    0.9643 C   0  0  0  0  0  0  0  0  0  0  0  0
   15.7942   10.8655    1.9505 C   0  0  0  0  0  0  0  0  0  0  0  0
   14.8655   11.6759    3.1630 S   0  0  0  0  0  0  0  0  0  0  0  0
   -6.8216  -20.5517    0.4945 H   0  0  0  0  0  0  0  0  0  0  0  0
   -7.3899  -18.7148    2.2476 H   0  0  0  0  0  0  0  0  0  0  0  0
   -7.3673  -13.8784    6.4797 H   0  0  0  0  0  0  0  0  0  0  0  0
   -8.6324  -14.9760    7.0656 H   0  0  0  0  0  0  0  0  0  0  0  0
   -6.9508  -16.8080    7.2503 H   0  0  0  0  0  0  0  0  0  0  0  0
   -6.4627  -15.4091    8.2117 H   0  0  0  0  0  0  0  0  0  0  0  0
   -5.6934  -15.7210    6.6513 H   0  0  0  0  0  0  0  0  0  0  0  0
   -4.5975  -15.8752   -7.1707 H   0  0  0  0  0  0  0  0  0  0  0  0
   -3.2867  -15.4961   -6.0393 H   0  0  0  0  0  0  0  0  0  0  0  0
   -5.5990  -13.6219   -6.7411 H   0  0  0  0  0  0  0  0  0  0  0  0
   -3.9405  -13.4762   -7.3275 H   0  0  0  0  0  0  0  0  0  0  0  0
   -4.2939  -13.2570   -5.6095 H   0  0  0  0  0  0  0  0  0  0  0  0
   -6.3981  -13.3873   -2.4217 H   0  0  0  0  0  0  0  0  0  0  0  0
   -7.4046  -10.2937    1.0966 H   0  0  0  0  0  0  0  0  0  0  0  0
   -9.0214   -6.1344    5.5343 H   0  0  0  0  0  0  0  0  0  0  0  0
   -7.4152   -5.4391    5.2424 H   0  0  0  0  0  0  0  0  0  0  0  0
   -6.3699   -7.6346    5.8060 H   0  0  0  0  0  0  0  0  0  0  0  0
   -7.9705   -8.3233    6.0949 H   0  0  0  0  0  0  0  0  0  0  0  0
   -7.3595   -7.0415    7.1451 H   0  0  0  0  0  0  0  0  0  0  0  0
   -2.7840   -6.9819   -7.2617 H   0  0  0  0  0  0  0  0  0  0  0  0
   -3.2863   -8.5344   -7.9488 H   0  0  0  0  0  0  0  0  0  0  0  0
   -0.8782   -8.5726   -7.3251 H   0  0  0  0  0  0  0  0  0  0  0  0
   -1.7835   -9.7150   -6.3293 H   0  0  0  0  0  0  0  0  0  0  0  0
   -1.2908   -8.1586   -5.6566 H   0  0  0  0  0  0  0  0  0  0  0  0
   -4.9884   -5.2741   -3.3689 H   0  0  0  0  0  0  0  0  0  0  0  0
   -3.8945   -3.1477   -3.4109 H   0  0  0  0  0  0  0  0  0  0  0  0
    0.2842   -3.1733   -7.4353 H   0  0  0  0  0  0  0  0  0  0  0  0
    0.6969   -3.8659   -5.8561 H   0  0  0  0  0  0  0  0  0  0  0  0
   -1.4641   -5.1086   -5.8312 H   0  0  0  0  0  0  0  0  0  0  0  0
   -1.8672   -4.4346   -7.4168 H   0  0  0  0  0  0  0  0  0  0  0  0
   -0.4930   -5.5345   -7.2472 H   0  0  0  0  0  0  0  0  0  0  0  0
   -4.1601    2.2354    4.7086 H   0  0  0  0  0  0  0  0  0  0  0  0
   -5.8475    2.7764    4.6459 H   0  0  0  0  0  0  0  0  0  0  0  0
   -3.4575    4.2491    3.4181 H   0  0  0  0  0  0  0  0  0  0  0  0
   -4.2920    4.7016    4.9106 H   0  0  0  0  0  0  0  0  0  0  0  0
   -5.1360    4.7988    3.3608 H   0  0  0  0  0  0  0  0  0  0  0  0
   -2.9130    3.1591   -0.2074 H   0  0  0  0  0  0  0  0  0  0  0  0
    0.8469    3.8705   -3.0824 H   0  0  0  0  0  0  0  0  0  0  0  0
    4.5837    4.1615   -7.2346 H   0  0  0  0  0  0  0  0  0  0  0  0
    2.8435    4.4911   -7.3420 H   0  0  0  0  0  0  0  0  0  0  0  0
    3.3161    6.9372   -7.4664 H   0  0  0  0  0  0  0  0  0  0  0  0
    4.1282    6.0653   -8.7714 H   0  0  0  0  0  0  0  0  0  0  0  0
    5.0488    6.6094   -7.3652 H   0  0  0  0  0  0  0  0  0  0  0  0
   -2.4491    8.6259    5.0449 H   0  0  0  0  0  0  0  0  0  0  0  0
   -3.1842    7.2185    4.2641 H   0  0  0  0  0  0  0  0  0  0  0  0
   -1.3951    5.7537    5.1827 H   0  0  0  0  0  0  0  0  0  0  0  0
   -2.2558    6.5970    6.4764 H   0  0  0  0  0  0  0  0  0  0  0  0
   -0.6542    7.1456    5.9769 H   0  0  0  0  0  0  0  0  0  0  0  0
    2.6268    8.8458    1.6884 H   0  0  0  0  0  0  0  0  0  0  0  0
    2.9974   10.9476    1.7854 H   0  0  0  0  0  0  0  0  0  0  0  0
    2.8925   14.0896    3.2931 H   0  0  0  0  0  0  0  0  0  0  0  0
    2.8888   12.9184    4.6061 H   0  0  0  0  0  0  0  0  0  0  0  0
    1.9717   12.5878    3.1311 H   0  0  0  0  0  0  0  0  0  0  0  0
    5.4517   13.7020    3.9197 H   0  0  0  0  0  0  0  0  0  0  0  0
    7.4750   12.7340    2.9544 H   0  0  0  0  0  0  0  0  0  0  0  0
    9.2527   11.6866    3.1241 H   0  0  0  0  0  0  0  0  0  0  0  0
   11.0793   13.9119    8.2195 H   0  0  0  0  0  0  0  0  0  0  0  0
   10.4943   12.2401    8.1149 H   0  0  0  0  0  0  0  0  0  0  0  0
    8.6047   13.8242    8.4426 H   0  0  0  0  0  0  0  0  0  0  0  0
    9.0603   14.6858    6.9696 H   0  0  0  0  0  0  0  0  0  0  0  0
    8.4791   13.0193    6.8743 H   0  0  0  0  0  0  0  0  0  0  0  0
   12.5063    5.6731   -3.1296 H   0  0  0  0  0  0  0  0  0  0  0  0
   13.1419    6.5923   -4.5068 H   0  0  0  0  0  0  0  0  0  0  0  0
   10.9018    7.6516   -4.8205 H   0  0  0  0  0  0  0  0  0  0  0  0
   10.2776    6.7515   -3.4352 H   0  0  0  0  0  0  0  0  0  0  0  0
   10.7789    5.8909   -4.8953 H   0  0  0  0  0  0  0  0  0  0  0  0
   15.4551    9.7783    0.1384 H   0  0  0  0  0  0  0  0  0  0  0  0
   16.8612   10.8407    2.0557 H   0  0  0  0  0  0  0  0  0  0  0  0
  1  2  2  0  0  0  0
  2  3  1  0  0  0  0
  3  4  2  0  0  0  0
  4  5  1  0  0  0  0
  5  6  1  0  0  0  0
  6  7  1  0  0  0  0
  7  8  1  0  0  0  0
  8  9  1  0  0  0  0
  7 10  2  0  0  0  0
 10 11  1  0  0  0  0
 10 12  1  0  0  0  0
 12 13  1  0  0  0  0
  4 14  1  0  0  0  0
 14 15  2  0  0  0  0
 15 16  1  0  0  0  0
 16 17  1  0  0  0  0
 17 18  1  0  0  0  0
 18 19  1  0  0  0  0
 19 20  1  0  0  0  0
 20 21  1  0  0  0  0
 19 22  2  0  0  0  0
 22 23  1  0  0  0  0
 23 24  1  0  0  0  0
 22 25  1  0  0  0  0
 16 26  2  0  0  0  0
 26 27  1  0  0  0  0
 15 28  1  0  0  0  0
 28 29  2  0  0  0  0
 29 30  1  0  0  0  0
 29 31  1  0  0  0  0
 31 32  2  0  0  0  0
 32 33  1  0  0  0  0
 33 34  2  0  0  0  0
 34 35  1  0  0  0  0
 35 36  1  0  0  0  0
 36 37  1  0  0  0  0
 37 38  1  0  0  0  0
 38 39  1  0  0  0  0
 37 40  2  0  0  0  0
 40 41  1  0  0  0  0
 40 42  1  0  0  0  0
 42 43  1  0  0  0  0
 34 44  1  0  0  0  0
 44 45  2  0  0  0  0
 45 46  1  0  0  0  0
 46 47  1  0  0  0  0
 47 48  1  0  0  0  0
 48 49  1  0  0  0  0
 49 50  1  0  0  0  0
 50 51  1  0  0  0  0
 49 52  2  0  0  0  0
 52 53  1  0  0  0  0
 53 54  1  0  0  0  0
 52 55  1  0  0  0  0
 46 56  2  0  0  0  0
 56 57  1  0  0  0  0
 45 58  1  0  0  0  0
 58 59  2  0  0  0  0
 59 60  1  0  0  0  0
 59 61  1  0  0  0  0
 61 62  2  0  0  0  0
 62 63  1  0  0  0  0
 63 64  2  0  0  0  0
 64 65  1  0  0  0  0
 65 66  1  0  0  0  0
 66 67  1  0  0  0  0
 67 68  1  0  0  0  0
 68 69  1  0  0  0  0
 67 70  2  0  0  0  0
 70 71  1  0  0  0  0
 70 72  1  0  0  0  0
 72 73  1  0  0  0  0
 64 74  1  0  0  0  0
 74 75  2  0  0  0  0
 75 76  1  0  0  0  0
 76 77  1  0  0  0  0
 77 78  1  0  0  0  0
 78 79  1  0  0  0  0
 79 80  1  0  0  0  0
 80 81  1  0  0  0  0
 79 82  2  0  0  0  0
 82 83  1  0  0  0  0
 83 84  1  0  0  0  0
 82 85  1  0  0  0  0
 76 86  2  0  0  0  0
 86 87  1  0  0  0  0
 75 88  1  0  0  0  0
 88 89  2  0  0  0  0
 89 90  1  0  0  0  0
 89 91  1  0  0  0  0
 91 92  2  0  0  0  0
 92 93  1  0  0  0  0
 93 94  2  0  0  0  0
 94 95  1  0  0  0  0
 95 96  1  0  0  0  0
 96 97  1  0  0  0  0
 97 98  1  0  0  0  0
 98 99  1  0  0  0  0
 97100  2  0  0  0  0
100101  1  0  0  0  0
100102  1  0  0  0  0
102103  1  0  0  0  0
 94104  1  0  0  0  0
104105  2  0  0  0  0
105106  1  0  0  0  0
106107  1  0  0  0  0
107108  1  0  0  0  0
108109  1  0  0  0  0
109110  1  0  0  0  0
110111  1  0  0  0  0
109112  2  0  0  0  0
112113  1  0  0  0  0
113114  1  0  0  0  0
112115  1  0  0  0  0
106116  2  0  0  0  0
116117  1  0  0  0  0
105118  1  0  0  0  0
118119  2  0  0  0  0
119120  1  0  0  0  0
119121  1  0  0  0  0
121122  1  0  0  0  0
122123  1  0  0  0  0
123124  2  0  0  0  0
124125  1  0  0  0  0
125126  1  0  0  0  0
126127  2  0  0  0  0
127128  1  0  0  0  0
127129  1  0  0  0  0
129130  2  0  0  0  0
123131  1  0  0  0  0
131132  2  0  0  0  0
132133  1  0  0  0  0
133134  2  0  0  0  0
134135  1  0  0  0  0
135136  1  0  0  0  0
136137  1  0  0  0  0
137138  1  0  0  0  0
138139  1  0  0  0  0
137140  2  0  0  0  0
140141  1  0  0  0  0
140142  1  0  0  0  0
142143  1  0  0  0  0
134144  1  0  0  0  0
144145  2  0  0  0  0
145146  1  0  0  0  0
146147  1  0  0  0  0
147148  1  0  0  0  0
148149  1  0  0  0  0
149150  1  0  0  0  0
150151  1  0  0  0  0
149152  2  0  0  0  0
152153  1  0  0  0  0
153154  1  0  0  0  0
152155  1  0  0  0  0
146156  2  0  0  0  0
156157  1  0  0  0  0
145158  1  0  0  0  0
158159  2  0  0  0  0
159160  1  0  0  0  0
 27  1  1  0  0  0  0
 57 31  1  0  0  0  0
 87 61  1  0  0  0  0
117 91  1  0  0  0  0
125121  2  0  0  0  0
157131  1  0  0  0  0
 26  3  1  0  0  0  0
 56 33  1  0  0  0  0
 86 63  1  0  0  0  0
116 93  1  0  0  0  0
130124  1  0  0  0  0
156133  1  0  0  0  0
 12  5  2  0  0  0  0
 30 14  1  0  0  0  0
 42 35  2  0  0  0  0
 60 44  1  0  0  0  0
 72 65  2  0  0  0  0
 90 74  1  0  0  0  0
102 95  2  0  0  0  0
120104  1  0  0  0  0
142135  2  0  0  0  0
160144  1  0  0  0  0
 23 17  2  0  0  0  0
 53 47  2  0  0  0  0
 83 77  2  0  0  0  0
113107  2  0  0  0  0
153147  2  0  0  0  0
  1161  1  0  0  0  0
  2162  1  0  0  0  0
  8163  1  0  0  0  0
  8164  1  0  0  0  0
  9165  1  0  0  0  0
  9166  1  0  0  0  0
  9167  1  0  0  0  0
 20168  1  0  0  0  0
 20169  1  0  0  0  0
 21170  1  0  0  0  0
 21171  1  0  0  0  0
 21172  1  0  0  0  0
 28173  1  0  0  0  0
 32174  1  0  0  0  0
 38175  1  0  0  0  0
 38176  1  0  0  0  0
 39177  1  0  0  0  0
 39178  1  0  0  0  0
 39179  1  0  0  0  0
 50180  1  0  0  0  0
 50181  1  0  0  0  0
 51182  1  0  0  0  0
 51183  1  0  0  0  0
 51184  1  0  0  0  0
 58185  1  0  0  0  0
 62186  1  0  0  0  0
 68187  1  0  0  0  0
 68188  1  0  0  0  0
 69189  1  0  0  0  0
 69190  1  0  0  0  0
 69191  1  0  0  0  0
 80192  1  0  0  0  0
 80193  1  0  0  0  0
 81194  1  0  0  0  0
 81195  1  0  0  0  0
 81196  1  0  0  0  0
 88197  1  0  0  0  0
 92198  1  0  0  0  0
 98199  1  0  0  0  0
 98200  1  0  0  0  0
 99201  1  0  0  0  0
 99202  1  0  0  0  0
 99203  1  0  0  0  0
110204  1  0  0  0  0
110205  1  0  0  0  0
111206  1  0  0  0  0
111207  1  0  0  0  0
111208  1  0  0  0  0
118209  1  0  0  0  0
126210  1  0  0  0  0
128211  1  0  0  0  0
128212  1  0  0  0  0
128213  1  0  0  0  0
129214  1  0  0  0  0
130215  1  0  0  0  0
132216  1  0  0  0  0
138217  1  0  0  0  0
138218  1  0  0  0  0
139219  1  0  0  0  0
139220  1  0  0  0  0
139221  1  0  0  0  0
150222  1  0  0  0  0
150223  1  0  0  0  0
151224  1  0  0  0  0
151225  1  0  0  0  0
151226  1  0  0  0  0
158227  1  0  0  0  0
159228  1  0  0  0  0
M  END
