
  xtb     03022208533D
 energy: -449.049484325959 gnorm: 0.000559943384 xtb: 6.4.1 (unknown)
228254  0     0  0            999 V2000
    3.0216   -9.4780   11.4375 C   0  0  0  0  0  0  0  0  0  0  0  0
    3.5359   -8.7923   10.3964 C   0  0  0  0  0  0  0  0  0  0  0  0
    2.5626   -8.4895    9.4002 C   0  0  0  0  0  0  0  0  0  0  0  0
    2.7288   -7.7637    8.2111 C   0  0  0  0  0  0  0  0  0  0  0  0
    3.9907   -7.1245    7.8738 C   0  0  0  0  0  0  0  0  0  0  0  0
    4.7515   -7.3731    6.3309 S   0  0  0  0  0  0  0  0  0  0  0  0
    6.0534   -6.2980    6.7117 C   0  0  0  0  0  0  0  0  0  0  0  0
    7.1151   -5.9964    5.7127 C   0  0  0  0  0  0  0  0  0  0  0  0
    6.6023   -5.0196    4.6519 C   0  0  0  0  0  0  0  0  0  0  0  0
    5.8898   -5.7796    7.9615 C   0  0  0  0  0  0  0  0  0  0  0  0
    6.9731   -4.6643    8.6883 Cl  0  0  0  0  0  0  0  0  0  0  0  0
    4.7240   -6.2492    8.6253 C   0  0  0  0  0  0  0  0  0  0  0  0
    4.2595   -5.6885   10.1798 Cl  0  0  0  0  0  0  0  0  0  0  0  0
    1.6208   -7.6514    7.3814 C   0  0  0  0  0  0  0  0  0  0  0  0
    0.3530   -8.1900    7.7068 C   0  0  0  0  0  0  0  0  0  0  0  0
    0.1793   -8.8931    8.9103 C   0  0  0  0  0  0  0  0  0  0  0  0
   -1.1148   -9.4408    9.2842 C   0  0  0  0  0  0  0  0  0  0  0  0
   -2.5286   -8.4304    9.3659 S   0  0  0  0  0  0  0  0  0  0  0  0
   -3.5359   -9.7441    9.8690 C   0  0  0  0  0  0  0  0  0  0  0  0
   -4.9752   -9.5368   10.1883 C   0  0  0  0  0  0  0  0  0  0  0  0
   -5.1549   -9.1006   11.6444 C   0  0  0  0  0  0  0  0  0  0  0  0
   -2.8044  -10.8896    9.9676 C   0  0  0  0  0  0  0  0  0  0  0  0
   -1.4332  -10.7235    9.6337 C   0  0  0  0  0  0  0  0  0  0  0  0
   -0.3326  -12.0358    9.5951 Cl  0  0  0  0  0  0  0  0  0  0  0  0
   -3.4595  -12.4043   10.4368 Cl  0  0  0  0  0  0  0  0  0  0  0  0
    1.2946   -9.0278    9.7292 C   0  0  0  0  0  0  0  0  0  0  0  0
    1.3349   -9.8200   11.2782 S   0  0  0  0  0  0  0  0  0  0  0  0
   -0.6057   -7.9327    6.6940 C   0  0  0  0  0  0  0  0  0  0  0  0
   -0.1089   -7.2184    5.6459 C   0  0  0  0  0  0  0  0  0  0  0  0
    1.5847   -6.8174    5.8547 S   0  0  0  0  0  0  0  0  0  0  0  0
   -0.7863   -6.7996    4.4637 C   0  0  0  0  0  0  0  0  0  0  0  0
   -0.2427   -6.1629    3.3884 C   0  0  0  0  0  0  0  0  0  0  0  0
   -1.1757   -5.8913    2.3593 C   0  0  0  0  0  0  0  0  0  0  0  0
   -0.9436   -5.2439    1.1330 C   0  0  0  0  0  0  0  0  0  0  0  0
    0.3314   -4.6126    0.8360 C   0  0  0  0  0  0  0  0  0  0  0  0
    1.0322   -3.5083    1.9887 S   0  0  0  0  0  0  0  0  0  0  0  0
    2.3294   -3.0903    0.9251 C   0  0  0  0  0  0  0  0  0  0  0  0
    3.3961   -2.1390    1.3419 C   0  0  0  0  0  0  0  0  0  0  0  0
    4.5031   -2.8599    2.1153 C   0  0  0  0  0  0  0  0  0  0  0  0
    2.2246   -3.7854   -0.2424 C   0  0  0  0  0  0  0  0  0  0  0  0
    3.3248   -3.6239   -1.5493 Cl  0  0  0  0  0  0  0  0  0  0  0  0
    1.0939   -4.6455   -0.2998 C   0  0  0  0  0  0  0  0  0  0  0  0
    0.8035   -5.6715   -1.6413 Cl  0  0  0  0  0  0  0  0  0  0  0  0
   -2.0260   -5.1444    0.2668 C   0  0  0  0  0  0  0  0  0  0  0  0
   -3.3292   -5.5937    0.5988 C   0  0  0  0  0  0  0  0  0  0  0  0
   -3.5695   -6.1838    1.8515 C   0  0  0  0  0  0  0  0  0  0  0  0
   -4.9169   -6.5412    2.2622 C   0  0  0  0  0  0  0  0  0  0  0  0
   -5.2955   -8.1196    2.8834 S   0  0  0  0  0  0  0  0  0  0  0  0
   -6.9627   -7.7168    3.1115 C   0  0  0  0  0  0  0  0  0  0  0  0
   -7.9401   -8.7242    3.6076 C   0  0  0  0  0  0  0  0  0  0  0  0
   -8.5068   -9.5531    2.4523 C   0  0  0  0  0  0  0  0  0  0  0  0
   -7.1977   -6.4319    2.7214 C   0  0  0  0  0  0  0  0  0  0  0  0
   -6.0407   -5.7599    2.2456 C   0  0  0  0  0  0  0  0  0  0  0  0
   -6.0671   -4.1037    1.7890 Cl  0  0  0  0  0  0  0  0  0  0  0  0
   -8.7350   -5.6728    2.7983 Cl  0  0  0  0  0  0  0  0  0  0  0  0
   -2.4719   -6.3600    2.6849 C   0  0  0  0  0  0  0  0  0  0  0  0
   -2.5018   -7.0944    4.2639 S   0  0  0  0  0  0  0  0  0  0  0  0
   -4.2648   -5.3227   -0.4333 C   0  0  0  0  0  0  0  0  0  0  0  0
   -3.7206   -4.6626   -1.4910 C   0  0  0  0  0  0  0  0  0  0  0  0
   -2.0053   -4.3810   -1.2907 S   0  0  0  0  0  0  0  0  0  0  0  0
   -4.3471   -4.0617   -2.6275 C   0  0  0  0  0  0  0  0  0  0  0  0
   -5.5788   -3.4800   -2.6922 C   0  0  0  0  0  0  0  0  0  0  0  0
   -5.7549   -2.6634   -3.8388 C   0  0  0  0  0  0  0  0  0  0  0  0
   -6.7867   -1.7352   -4.1042 C   0  0  0  0  0  0  0  0  0  0  0  0
   -7.9531   -1.6102   -3.2504 C   0  0  0  0  0  0  0  0  0  0  0  0
   -7.8426   -1.5866   -1.5135 S   0  0  0  0  0  0  0  0  0  0  0  0
   -9.5520   -1.4004   -1.3200 C   0  0  0  0  0  0  0  0  0  0  0  0
  -10.1641   -1.3592    0.0364 C   0  0  0  0  0  0  0  0  0  0  0  0
   -9.9304   -2.6688    0.7908 C   0  0  0  0  0  0  0  0  0  0  0  0
  -10.1599   -1.3555   -2.5386 C   0  0  0  0  0  0  0  0  0  0  0  0
  -11.8533   -1.1861   -2.7629 Cl  0  0  0  0  0  0  0  0  0  0  0  0
   -9.2594   -1.4631   -3.6326 C   0  0  0  0  0  0  0  0  0  0  0  0
   -9.7981   -1.4941   -5.2588 Cl  0  0  0  0  0  0  0  0  0  0  0  0
   -6.5766   -0.8550   -5.1606 C   0  0  0  0  0  0  0  0  0  0  0  0
   -5.4695   -0.9665   -6.0364 C   0  0  0  0  0  0  0  0  0  0  0  0
   -4.4881   -1.9519   -5.8325 C   0  0  0  0  0  0  0  0  0  0  0  0
   -3.2941   -1.9723   -6.6585 C   0  0  0  0  0  0  0  0  0  0  0  0
   -1.7113   -1.7956   -5.9569 S   0  0  0  0  0  0  0  0  0  0  0  0
   -0.9396   -1.7861   -7.5063 C   0  0  0  0  0  0  0  0  0  0  0  0
    0.5411   -1.6823   -7.6139 C   0  0  0  0  0  0  0  0  0  0  0  0
    1.2208   -2.9656   -7.1338 C   0  0  0  0  0  0  0  0  0  0  0  0
   -1.8650   -1.9250   -8.4971 C   0  0  0  0  0  0  0  0  0  0  0  0
   -3.2015   -2.0156   -8.0211 C   0  0  0  0  0  0  0  0  0  0  0  0
   -4.5514   -2.2076   -9.0620 Cl  0  0  0  0  0  0  0  0  0  0  0  0
   -1.4840   -1.9735  -10.1704 Cl  0  0  0  0  0  0  0  0  0  0  0  0
   -4.6244   -2.7241   -4.6915 C   0  0  0  0  0  0  0  0  0  0  0  0
   -3.3835   -3.7582   -4.0542 S   0  0  0  0  0  0  0  0  0  0  0  0
   -5.2982    0.1813   -6.8319 C   0  0  0  0  0  0  0  0  0  0  0  0
   -6.1321    1.2155   -6.4983 C   0  0  0  0  0  0  0  0  0  0  0  0
   -7.3908    0.6802   -5.3897 S   0  0  0  0  0  0  0  0  0  0  0  0
   -5.7427    2.5739   -6.6577 C   0  0  0  0  0  0  0  0  0  0  0  0
   -4.0429    2.7848   -6.9594 S   0  0  0  0  0  0  0  0  0  0  0  0
   -4.0342    4.4035   -6.3459 C   0  0  0  0  0  0  0  0  0  0  0  0
   -5.3393    4.8342   -6.0965 C   0  0  0  0  0  0  0  0  0  0  0  0
   -6.3088    3.7848   -6.2517 C   0  0  0  0  0  0  0  0  0  0  0  0
   -7.6615    4.0356   -5.9502 C   0  0  0  0  0  0  0  0  0  0  0  0
   -8.0505    5.2751   -5.5203 C   0  0  0  0  0  0  0  0  0  0  0  0
   -9.4804    5.5785   -5.2017 C   0  0  0  0  0  0  0  0  0  0  0  0
   -7.0849    6.3027   -5.3702 C   0  0  0  0  0  0  0  0  0  0  0  0
   -5.7650    6.0992   -5.6418 C   0  0  0  0  0  0  0  0  0  0  0  0
   -2.7615    4.8660   -5.9046 C   0  0  0  0  0  0  0  0  0  0  0  0
   -1.7796    3.9924   -5.5161 C   0  0  0  0  0  0  0  0  0  0  0  0
   -0.6538    4.6066   -4.9405 C   0  0  0  0  0  0  0  0  0  0  0  0
    0.4638    3.9645   -4.3826 C   0  0  0  0  0  0  0  0  0  0  0  0
    0.5370    2.5184   -4.2418 C   0  0  0  0  0  0  0  0  0  0  0  0
   -0.7390    1.6370   -3.4434 S   0  0  0  0  0  0  0  0  0  0  0  0
    0.1337    0.1444   -3.5089 C   0  0  0  0  0  0  0  0  0  0  0  0
   -0.3905   -1.0908   -2.8648 C   0  0  0  0  0  0  0  0  0  0  0  0
    0.0289   -1.1531   -1.3941 C   0  0  0  0  0  0  0  0  0  0  0  0
    1.3329    0.3302   -4.1286 C   0  0  0  0  0  0  0  0  0  0  0  0
    2.4823   -0.9215   -4.3649 Cl  0  0  0  0  0  0  0  0  0  0  0  0
    1.5633    1.6679   -4.5504 C   0  0  0  0  0  0  0  0  0  0  0  0
    2.9646    2.1200   -5.4283 Cl  0  0  0  0  0  0  0  0  0  0  0  0
    1.4584    4.7904   -3.8800 C   0  0  0  0  0  0  0  0  0  0  0  0
    1.3897    6.2061   -3.9201 C   0  0  0  0  0  0  0  0  0  0  0  0
    0.2466    6.8406   -4.4468 C   0  0  0  0  0  0  0  0  0  0  0  0
    0.1282    8.2898   -4.4588 C   0  0  0  0  0  0  0  0  0  0  0  0
    1.3491    9.2841   -5.1987 S   0  0  0  0  0  0  0  0  0  0  0  0
    0.4940   10.7440   -4.8369 C   0  0  0  0  0  0  0  0  0  0  0  0
    1.0078   12.0705   -5.2757 C   0  0  0  0  0  0  0  0  0  0  0  0
    0.5530   12.3875   -6.7024 C   0  0  0  0  0  0  0  0  0  0  0  0
   -0.6692   10.4608   -4.1861 C   0  0  0  0  0  0  0  0  0  0  0  0
   -0.8787    9.0727   -3.9662 C   0  0  0  0  0  0  0  0  0  0  0  0
   -2.2241    8.4790   -3.0862 Cl  0  0  0  0  0  0  0  0  0  0  0  0
   -1.7855   11.6534   -3.6608 Cl  0  0  0  0  0  0  0  0  0  0  0  0
   -0.7606    6.0194   -4.9380 C   0  0  0  0  0  0  0  0  0  0  0  0
   -2.2880    6.5267   -5.6195 S   0  0  0  0  0  0  0  0  0  0  0  0
    2.5148    6.8000   -3.2918 C   0  0  0  0  0  0  0  0  0  0  0  0
    3.3864    5.8912   -2.7692 C   0  0  0  0  0  0  0  0  0  0  0  0
    2.8759    4.2400   -3.0465 S   0  0  0  0  0  0  0  0  0  0  0  0
    4.6033    6.0923   -2.0540 C   0  0  0  0  0  0  0  0  0  0  0  0
    5.3036    5.1234   -1.3990 C   0  0  0  0  0  0  0  0  0  0  0  0
    6.4909    5.5925   -0.7904 C   0  0  0  0  0  0  0  0  0  0  0  0
    7.4374    4.8518   -0.0636 C   0  0  0  0  0  0  0  0  0  0  0  0
    7.2566    3.4253    0.1589 C   0  0  0  0  0  0  0  0  0  0  0  0
    6.9816    2.3312   -1.1664 S   0  0  0  0  0  0  0  0  0  0  0  0
    6.8441    0.9627   -0.1163 C   0  0  0  0  0  0  0  0  0  0  0  0
    6.6163   -0.4055   -0.6575 C   0  0  0  0  0  0  0  0  0  0  0  0
    7.9125   -1.0075   -1.2039 C   0  0  0  0  0  0  0  0  0  0  0  0
    7.0170    1.3461    1.1797 C   0  0  0  0  0  0  0  0  0  0  0  0
    6.9444    0.2702    2.5134 Cl  0  0  0  0  0  0  0  0  0  0  0  0
    7.2495    2.7389    1.3414 C   0  0  0  0  0  0  0  0  0  0  0  0
    7.4104    3.4696    2.8840 Cl  0  0  0  0  0  0  0  0  0  0  0  0
    8.5424    5.5458    0.4138 C   0  0  0  0  0  0  0  0  0  0  0  0
    8.7282    6.9341    0.2035 C   0  0  0  0  0  0  0  0  0  0  0  0
    7.7667    7.6774   -0.4993 C   0  0  0  0  0  0  0  0  0  0  0  0
    7.9266    9.1032   -0.7414 C   0  0  0  0  0  0  0  0  0  0  0  0
    9.3412    9.7318   -1.5340 S   0  0  0  0  0  0  0  0  0  0  0  0
    8.7479   11.3565   -1.4797 C   0  0  0  0  0  0  0  0  0  0  0  0
    9.5143   12.4802   -2.0849 C   0  0  0  0  0  0  0  0  0  0  0  0
    9.1934   12.6205   -3.5750 C   0  0  0  0  0  0  0  0  0  0  0  0
    7.5225   11.3918   -0.8849 C   0  0  0  0  0  0  0  0  0  0  0  0
    7.0543   10.1180   -0.4632 C   0  0  0  0  0  0  0  0  0  0  0  0
    5.5768    9.9154    0.3814 Cl  0  0  0  0  0  0  0  0  0  0  0  0
    6.6163   12.8294   -0.6475 Cl  0  0  0  0  0  0  0  0  0  0  0  0
    6.6647    6.9847   -0.9848 C   0  0  0  0  0  0  0  0  0  0  0  0
    5.3701    7.6595   -1.9369 S   0  0  0  0  0  0  0  0  0  0  0  0
    9.9469    7.3923    0.7837 C   0  0  0  0  0  0  0  0  0  0  0  0
   10.6510    6.4035    1.3716 C   0  0  0  0  0  0  0  0  0  0  0  0
    9.8865    4.8566    1.2778 S   0  0  0  0  0  0  0  0  0  0  0  0
    3.5331   -9.8254   12.3139 H   0  0  0  0  0  0  0  0  0  0  0  0
    4.5702   -8.5131   10.3184 H   0  0  0  0  0  0  0  0  0  0  0  0
    7.9706   -5.5621    6.2322 H   0  0  0  0  0  0  0  0  0  0  0  0
    7.4325   -6.9218    5.2282 H   0  0  0  0  0  0  0  0  0  0  0  0
    7.3857   -4.8062    3.9300 H   0  0  0  0  0  0  0  0  0  0  0  0
    6.2934   -4.0863    5.1155 H   0  0  0  0  0  0  0  0  0  0  0  0
    5.7504   -5.4468    4.1283 H   0  0  0  0  0  0  0  0  0  0  0  0
   -5.3867   -8.7732    9.5262 H   0  0  0  0  0  0  0  0  0  0  0  0
   -5.5093  -10.4738   10.0197 H   0  0  0  0  0  0  0  0  0  0  0  0
   -4.6289   -8.1665   11.8262 H   0  0  0  0  0  0  0  0  0  0  0  0
   -6.2094   -8.9564   11.8633 H   0  0  0  0  0  0  0  0  0  0  0  0
   -4.7597   -9.8585   12.3159 H   0  0  0  0  0  0  0  0  0  0  0  0
   -1.6253   -8.2713    6.7320 H   0  0  0  0  0  0  0  0  0  0  0  0
    0.8014   -5.9133    3.3329 H   0  0  0  0  0  0  0  0  0  0  0  0
    3.8147   -1.6716    0.4486 H   0  0  0  0  0  0  0  0  0  0  0  0
    2.9626   -1.3610    1.9722 H   0  0  0  0  0  0  0  0  0  0  0  0
    5.2674   -2.1510    2.4216 H   0  0  0  0  0  0  0  0  0  0  0  0
    4.0935   -3.3335    3.0041 H   0  0  0  0  0  0  0  0  0  0  0  0
    4.9625   -3.6246    1.4941 H   0  0  0  0  0  0  0  0  0  0  0  0
   -7.4462   -9.3855    4.3212 H   0  0  0  0  0  0  0  0  0  0  0  0
   -8.7536   -8.2031    4.1159 H   0  0  0  0  0  0  0  0  0  0  0  0
   -9.0130   -8.9083    1.7385 H   0  0  0  0  0  0  0  0  0  0  0  0
   -7.7067  -10.0806    1.9387 H   0  0  0  0  0  0  0  0  0  0  0  0
   -9.2192  -10.2813    2.8301 H   0  0  0  0  0  0  0  0  0  0  0  0
   -5.2951   -5.6231   -0.3992 H   0  0  0  0  0  0  0  0  0  0  0  0
   -6.2968   -3.5715   -1.8994 H   0  0  0  0  0  0  0  0  0  0  0  0
  -11.2342   -1.1762   -0.0731 H   0  0  0  0  0  0  0  0  0  0  0  0
   -9.7292   -0.5347    0.6071 H   0  0  0  0  0  0  0  0  0  0  0  0
   -8.8651   -2.8482    0.9154 H   0  0  0  0  0  0  0  0  0  0  0  0
  -10.3920   -2.6221    1.7736 H   0  0  0  0  0  0  0  0  0  0  0  0
  -10.3617   -3.5042    0.2443 H   0  0  0  0  0  0  0  0  0  0  0  0
    0.8904   -0.8435   -7.0074 H   0  0  0  0  0  0  0  0  0  0  0  0
    0.8026   -1.4903   -8.6556 H   0  0  0  0  0  0  0  0  0  0  0  0
    0.9572   -3.1657   -6.0979 H   0  0  0  0  0  0  0  0  0  0  0  0
    0.9084   -3.8109   -7.7419 H   0  0  0  0  0  0  0  0  0  0  0  0
    2.3002   -2.8636   -7.2048 H   0  0  0  0  0  0  0  0  0  0  0  0
   -4.4743    0.3038   -7.5117 H   0  0  0  0  0  0  0  0  0  0  0  0
   -8.3807    3.2394   -6.0733 H   0  0  0  0  0  0  0  0  0  0  0  0
   -9.8373    6.4054   -5.8142 H   0  0  0  0  0  0  0  0  0  0  0  0
  -10.1117    4.7124   -5.3794 H   0  0  0  0  0  0  0  0  0  0  0  0
   -9.5784    5.8738   -4.1575 H   0  0  0  0  0  0  0  0  0  0  0  0
   -7.4195    7.2722   -5.0311 H   0  0  0  0  0  0  0  0  0  0  0  0
   -5.0400    6.8904   -5.5262 H   0  0  0  0  0  0  0  0  0  0  0  0
   -1.8864    2.9264   -5.5931 H   0  0  0  0  0  0  0  0  0  0  0  0
    0.0020   -1.9619   -3.3912 H   0  0  0  0  0  0  0  0  0  0  0  0
   -1.4784   -1.1079   -2.9367 H   0  0  0  0  0  0  0  0  0  0  0  0
   -0.3578   -0.2937   -0.8518 H   0  0  0  0  0  0  0  0  0  0  0  0
   -0.3604   -2.0593   -0.9385 H   0  0  0  0  0  0  0  0  0  0  0  0
    1.1127   -1.1589   -1.3103 H   0  0  0  0  0  0  0  0  0  0  0  0
    2.0982   12.0693   -5.2329 H   0  0  0  0  0  0  0  0  0  0  0  0
    0.6304   12.8351   -4.5940 H   0  0  0  0  0  0  0  0  0  0  0  0
   -0.5325   12.4054   -6.7562 H   0  0  0  0  0  0  0  0  0  0  0  0
    0.9232   11.6334   -7.3929 H   0  0  0  0  0  0  0  0  0  0  0  0
    0.9334   13.3583   -7.0083 H   0  0  0  0  0  0  0  0  0  0  0  0
    2.6674    7.8608   -3.2083 H   0  0  0  0  0  0  0  0  0  0  0  0
    4.9686    4.1033   -1.3548 H   0  0  0  0  0  0  0  0  0  0  0  0
    5.8749   -0.3602   -1.4577 H   0  0  0  0  0  0  0  0  0  0  0  0
    6.2312   -1.0371    0.1447 H   0  0  0  0  0  0  0  0  0  0  0  0
    8.3086   -0.3881   -2.0049 H   0  0  0  0  0  0  0  0  0  0  0  0
    8.6583   -1.0766   -0.4158 H   0  0  0  0  0  0  0  0  0  0  0  0
    7.7232   -2.0039   -1.5938 H   0  0  0  0  0  0  0  0  0  0  0  0
   10.5831   12.2998   -1.9588 H   0  0  0  0  0  0  0  0  0  0  0  0
    9.2502   13.4037   -1.5662 H   0  0  0  0  0  0  0  0  0  0  0  0
    9.7564   13.4461   -4.0015 H   0  0  0  0  0  0  0  0  0  0  0  0
    8.1326   12.8121   -3.7151 H   0  0  0  0  0  0  0  0  0  0  0  0
    9.4549   11.7078   -4.1051 H   0  0  0  0  0  0  0  0  0  0  0  0
   10.2687    8.4168    0.7547 H   0  0  0  0  0  0  0  0  0  0  0  0
   11.5947    6.4779    1.8756 H   0  0  0  0  0  0  0  0  0  0  0  0
  1  2  2  0  0  0  0
  2  3  1  0  0  0  0
  3  4  2  0  0  0  0
  4  5  1  0  0  0  0
  5  6  1  0  0  0  0
  6  7  1  0  0  0  0
  7  8  1  0  0  0  0
  8  9  1  0  0  0  0
  7 10  2  0  0  0  0
 10 11  1  0  0  0  0
 10 12  1  0  0  0  0
 12 13  1  0  0  0  0
  4 14  1  0  0  0  0
 14 15  2  0  0  0  0
 15 16  1  0  0  0  0
 16 17  1  0  0  0  0
 17 18  1  0  0  0  0
 18 19  1  0  0  0  0
 19 20  1  0  0  0  0
 20 21  1  0  0  0  0
 19 22  2  0  0  0  0
 22 23  1  0  0  0  0
 23 24  1  0  0  0  0
 22 25  1  0  0  0  0
 16 26  2  0  0  0  0
 26 27  1  0  0  0  0
 15 28  1  0  0  0  0
 28 29  2  0  0  0  0
 29 30  1  0  0  0  0
 29 31  1  0  0  0  0
 31 32  2  0  0  0  0
 32 33  1  0  0  0  0
 33 34  2  0  0  0  0
 34 35  1  0  0  0  0
 35 36  1  0  0  0  0
 36 37  1  0  0  0  0
 37 38  1  0  0  0  0
 38 39  1  0  0  0  0
 37 40  2  0  0  0  0
 40 41  1  0  0  0  0
 40 42  1  0  0  0  0
 42 43  1  0  0  0  0
 34 44  1  0  0  0  0
 44 45  2  0  0  0  0
 45 46  1  0  0  0  0
 46 47  1  0  0  0  0
 47 48  1  0  0  0  0
 48 49  1  0  0  0  0
 49 50  1  0  0  0  0
 50 51  1  0  0  0  0
 49 52  2  0  0  0  0
 52 53  1  0  0  0  0
 53 54  1  0  0  0  0
 52 55  1  0  0  0  0
 46 56  2  0  0  0  0
 56 57  1  0  0  0  0
 45 58  1  0  0  0  0
 58 59  2  0  0  0  0
 59 60  1  0  0  0  0
 59 61  1  0  0  0  0
 61 62  2  0  0  0  0
 62 63  1  0  0  0  0
 63 64  2  0  0  0  0
 64 65  1  0  0  0  0
 65 66  1  0  0  0  0
 66 67  1  0  0  0  0
 67 68  1  0  0  0  0
 68 69  1  0  0  0  0
 67 70  2  0  0  0  0
 70 71  1  0  0  0  0
 70 72  1  0  0  0  0
 72 73  1  0  0  0  0
 64 74  1  0  0  0  0
 74 75  2  0  0  0  0
 75 76  1  0  0  0  0
 76 77  1  0  0  0  0
 77 78  1  0  0  0  0
 78 79  1  0  0  0  0
 79 80  1  0  0  0  0
 80 81  1  0  0  0  0
 79 82  2  0  0  0  0
 82 83  1  0  0  0  0
 83 84  1  0  0  0  0
 82 85  1  0  0  0  0
 76 86  2  0  0  0  0
 86 87  1  0  0  0  0
 75 88  1  0  0  0  0
 88 89  2  0  0  0  0
 89 90  1  0  0  0  0
 89 91  1  0  0  0  0
 91 92  1  0  0  0  0
 92 93  1  0  0  0  0
 93 94  2  0  0  0  0
 94 95  1  0  0  0  0
 95 96  1  0  0  0  0
 96 97  2  0  0  0  0
 97 98  1  0  0  0  0
 97 99  1  0  0  0  0
 99100  2  0  0  0  0
 93101  1  0  0  0  0
101102  2  0  0  0  0
102103  1  0  0  0  0
103104  2  0  0  0  0
104105  1  0  0  0  0
105106  1  0  0  0  0
106107  1  0  0  0  0
107108  1  0  0  0  0
108109  1  0  0  0  0
107110  2  0  0  0  0
110111  1  0  0  0  0
110112  1  0  0  0  0
112113  1  0  0  0  0
104114  1  0  0  0  0
114115  2  0  0  0  0
115116  1  0  0  0  0
116117  1  0  0  0  0
117118  1  0  0  0  0
118119  1  0  0  0  0
119120  1  0  0  0  0
120121  1  0  0  0  0
119122  2  0  0  0  0
122123  1  0  0  0  0
123124  1  0  0  0  0
122125  1  0  0  0  0
116126  2  0  0  0  0
126127  1  0  0  0  0
115128  1  0  0  0  0
128129  2  0  0  0  0
129130  1  0  0  0  0
129131  1  0  0  0  0
131132  2  0  0  0  0
132133  1  0  0  0  0
133134  2  0  0  0  0
134135  1  0  0  0  0
135136  1  0  0  0  0
136137  1  0  0  0  0
137138  1  0  0  0  0
138139  1  0  0  0  0
137140  2  0  0  0  0
140141  1  0  0  0  0
140142  1  0  0  0  0
142143  1  0  0  0  0
134144  1  0  0  0  0
144145  2  0  0  0  0
145146  1  0  0  0  0
146147  1  0  0  0  0
147148  1  0  0  0  0
148149  1  0  0  0  0
149150  1  0  0  0  0
150151  1  0  0  0  0
149152  2  0  0  0  0
152153  1  0  0  0  0
153154  1  0  0  0  0
152155  1  0  0  0  0
146156  2  0  0  0  0
156157  1  0  0  0  0
145158  1  0  0  0  0
158159  2  0  0  0  0
159160  1  0  0  0  0
 27  1  1  0  0  0  0
 57 31  1  0  0  0  0
 87 61  1  0  0  0  0
 95 91  2  0  0  0  0
127101  1  0  0  0  0
157131  1  0  0  0  0
 26  3  1  0  0  0  0
 56 33  1  0  0  0  0
 86 63  1  0  0  0  0
100 94  1  0  0  0  0
126103  1  0  0  0  0
156133  1  0  0  0  0
 12  5  2  0  0  0  0
 30 14  1  0  0  0  0
 42 35  2  0  0  0  0
 60 44  1  0  0  0  0
 72 65  2  0  0  0  0
 90 74  1  0  0  0  0
112105  2  0  0  0  0
130114  1  0  0  0  0
142135  2  0  0  0  0
160144  1  0  0  0  0
 23 17  2  0  0  0  0
 53 47  2  0  0  0  0
 83 77  2  0  0  0  0
123117  2  0  0  0  0
153147  2  0  0  0  0
  1161  1  0  0  0  0
  2162  1  0  0  0  0
  8163  1  0  0  0  0
  8164  1  0  0  0  0
  9165  1  0  0  0  0
  9166  1  0  0  0  0
  9167  1  0  0  0  0
 20168  1  0  0  0  0
 20169  1  0  0  0  0
 21170  1  0  0  0  0
 21171  1  0  0  0  0
 21172  1  0  0  0  0
 28173  1  0  0  0  0
 32174  1  0  0  0  0
 38175  1  0  0  0  0
 38176  1  0  0  0  0
 39177  1  0  0  0  0
 39178  1  0  0  0  0
 39179  1  0  0  0  0
 50180  1  0  0  0  0
 50181  1  0  0  0  0
 51182  1  0  0  0  0
 51183  1  0  0  0  0
 51184  1  0  0  0  0
 58185  1  0  0  0  0
 62186  1  0  0  0  0
 68187  1  0  0  0  0
 68188  1  0  0  0  0
 69189  1  0  0  0  0
 69190  1  0  0  0  0
 69191  1  0  0  0  0
 80192  1  0  0  0  0
 80193  1  0  0  0  0
 81194  1  0  0  0  0
 81195  1  0  0  0  0
 81196  1  0  0  0  0
 88197  1  0  0  0  0
 96198  1  0  0  0  0
 98199  1  0  0  0  0
 98200  1  0  0  0  0
 98201  1  0  0  0  0
 99202  1  0  0  0  0
100203  1  0  0  0  0
102204  1  0  0  0  0
108205  1  0  0  0  0
108206  1  0  0  0  0
109207  1  0  0  0  0
109208  1  0  0  0  0
109209  1  0  0  0  0
120210  1  0  0  0  0
120211  1  0  0  0  0
121212  1  0  0  0  0
121213  1  0  0  0  0
121214  1  0  0  0  0
128215  1  0  0  0  0
132216  1  0  0  0  0
138217  1  0  0  0  0
138218  1  0  0  0  0
139219  1  0  0  0  0
139220  1  0  0  0  0
139221  1  0  0  0  0
150222  1  0  0  0  0
150223  1  0  0  0  0
151224  1  0  0  0  0
151225  1  0  0  0  0
151226  1  0  0  0  0
158227  1  0  0  0  0
159228  1  0  0  0  0
M  END
