202

C         10.36470        7.66380       13.12250
S          9.31530        7.14530       11.88220
C         10.02820        5.56200       11.83140
C         11.08550        5.47460       12.73810
C         11.26120        6.68440       13.48990
C         12.28550        6.76660       14.46390
C         13.12900        5.71300       14.65780
C         14.22440        5.75600       15.67790
C         12.98890        4.54560       13.85980
C         12.00700        4.41950       12.92560
C          9.51580        4.58000       10.93860
S          8.97880        5.03630        9.35850
C          8.58510        3.40720        8.92080
C          8.81840        2.53640        9.99170
C          9.33810        3.20700       11.14380
C          9.51830        2.49370       12.34810
C          9.24640        1.15530       12.40470
C          9.42640        0.37140       13.66740
C          8.75580        0.49490       11.25220
C          8.53050        1.15730       10.08310
C          8.06240        3.13720        7.62820
C          8.06450        1.96710        6.92050
C          7.38360        2.04640        5.68330
C          7.12840        1.00680        4.77030
C          7.51810       -0.36250        5.06230
S          8.46090       -1.30090        3.94350
C          8.46080       -2.68410        4.98320
C          9.19460       -3.92720        4.61810
C         10.65210       -3.86030        5.08080
C          7.77100       -2.41700        6.12800
Cl         7.55430       -3.54760        7.40110
C          7.22960       -1.10510        6.17360
Cl         6.23610       -0.55960        7.46410
C          6.44660        1.33910        3.60800
C          6.00170        2.65430        3.33510
C          6.20490        3.68400        4.27220
C          5.65220        5.00780        4.03610
S          6.63790        6.43720        4.11870
C          5.31870        7.46810        3.68240
C          5.50430        8.93340        3.49450
C          5.85280        9.25590        2.03910
C          4.18720        6.73320        3.48950
C          4.36880        5.34060        3.69580
Cl         3.06260        4.22720        3.60080
Cl         2.67760        7.40670        3.03690
C          6.90620        3.35560        5.42120
S          7.26130        4.43030        6.74100
C          5.31170        2.73280        2.10500
C          5.14740        1.52410        1.49290
S          5.94280        0.22910        2.36250
C          4.29840        1.28680        0.37060
C          3.31760        2.14120       -0.04310
C          2.51670        1.62550       -1.08570
C          1.39230        2.23560       -1.67410
C          1.05280        3.60490       -1.33410
S         -0.54710        4.05730       -0.82420
C         -0.07780        5.69760       -0.53930
C         -1.03460        6.69300        0.01730
C         -0.99300        6.69060        1.54770
C          1.24280        5.87180       -0.83040
Cl         2.06990        7.36480       -0.66250
C          1.88530        4.69180       -1.28710
Cl         3.52280        4.68340       -1.80490
C          0.62780        1.44330       -2.51910
C          1.00140        0.11980       -2.85800
C          2.19030       -0.44720       -2.36020
C          2.57220       -1.78880       -2.76100
S          2.95360       -3.02140       -1.59550
C          3.15110       -4.22700       -2.81990
C          3.43000       -5.64720       -2.47230
C          2.12370       -6.42880       -2.30880
C          2.93820       -3.69070       -4.05530
C          2.61540       -2.30900       -4.02700
Cl         2.38400       -1.38960       -5.45900
Cl         3.03730       -4.58570       -5.51580
C          2.90310        0.31020       -1.44270
S          4.29950       -0.20830       -0.53760
C          0.00560       -0.52730       -3.62280
C         -1.07890        0.25790       -3.88780
S         -0.90520        1.86970       -3.22930
C         -2.28330       -0.20610       -4.49780
C         -2.43180       -1.40010       -5.14300
C         -3.77700       -1.72640       -5.42380
C         -4.27200       -2.90860       -6.00030
C         -3.38650       -4.00840       -6.34300
S         -3.45400       -4.75670       -7.91130
C         -2.18580       -5.86940       -7.52460
C         -1.75420       -6.90550       -8.50250
C         -2.80990       -8.00550       -8.63410
C         -1.75200       -5.66580       -6.24880
Cl        -0.50030       -6.57040       -5.50310
C         -2.42820       -4.61310       -5.57540
Cl        -2.11050       -4.23820       -3.92860
C         -5.64400       -2.98030       -6.19680
C         -6.53340       -1.94190       -5.82650
C         -6.03860       -0.77230       -5.22160
C         -6.92950        0.30430       -4.82070
S         -8.01850        1.03570       -5.96360
C         -8.62640        2.15230       -4.79060
C         -9.63330        3.18660       -5.15520
C         -8.94920        4.45550       -5.67000
C         -8.00910        1.96020       -3.59110
C         -7.04980        0.91190       -3.60180
Cl        -6.21130        0.42280       -2.18970
Cl        -8.35180        2.87860       -2.18320
C         -4.66590       -0.69610       -5.02530
S         -3.80500        0.63110       -4.29900
C         -7.88460       -2.29580       -6.06640
C         -8.03400       -3.54490       -6.59030
S         -6.49870       -4.35370       -6.83550
C         -9.24110       -4.22730       -6.91950
C         -9.35740       -5.50760       -7.36990
C        -10.69630       -5.90770       -7.60040
C        -11.15880       -7.14570       -8.07670
C        -10.22020       -8.17780       -8.48150
S        -10.30660       -9.79170       -7.84120
C         -8.91220      -10.30200       -8.72870
C         -8.35850      -11.67560       -8.57660
C         -7.37550      -11.73970       -7.40490
C         -8.41970       -9.27140       -9.47270
Cl        -7.03660       -9.39490      -10.48070
C         -9.16080       -8.06720       -9.34060
Cl        -8.79020       -6.65440      -10.24360
C        -12.53560       -7.32360       -8.12920
C        -13.45620       -6.30960       -7.77280
C        -12.99180       -5.05000       -7.36030
C        -13.91370       -3.96900       -7.05110
S        -13.83970       -3.11490       -5.53900
C        -15.16670       -2.08830       -5.96520
C        -15.69140       -1.07380       -5.01030
C        -16.57160       -1.72690       -3.94220
C        -15.62930       -2.40280       -7.20800
C        -14.91920       -3.46570       -7.82860
Cl       -15.25650       -3.99330       -9.42690
Cl       -16.93680       -1.60010       -7.97750
C        -11.61640       -4.88590       -7.26390
S        -10.79650       -3.44030       -6.74040
C        -14.80320       -6.76450       -7.88060
C        -14.89250       -8.03400       -8.32580
S        -13.35870       -8.77100       -8.63750
H         10.27460        8.65630       13.51650
H         12.38790        7.67760       15.03510
H         14.22520        6.70350       16.21040
H         14.09960        4.94950       16.39980
H         15.19340        5.62410       15.19760
H         13.69730        3.74270       14.00440
H         11.93540        3.53400       12.31310
H          9.84430        3.02430       13.22950
H          9.79900        1.00380       14.46920
H         10.13150       -0.44380       13.50770
H          8.47880       -0.06690       13.97880
H          8.52910       -0.55910       11.32190
H          8.09970        0.64100        9.24240
H          8.57700        1.08230        7.24580
H          9.16180       -4.06060        3.53580
H          8.70070       -4.77790        5.09180
H         10.69950       -3.73810        6.15990
H         11.17170       -4.77560        4.81060
H         11.15820       -3.01940        4.61260
H          6.30420        9.28310        4.14880
H          4.57850        9.44410        3.76790
H          5.98110       10.32770        1.91460
H          6.77570        8.75740        1.75250
H          5.05730        8.92150        1.37780
H          4.95300        3.65310        1.68560
H          3.12550        3.08190        0.43630
H         -2.04370        6.45340       -0.32130
H         -0.76560        7.68480       -0.35210
H          0.00670        6.93320        1.89800
H         -1.68780        7.42760        1.94130
H         -1.26700        5.71080        1.93150
H          4.02510       -6.09620       -3.27020
H          3.99990       -5.68750       -1.54290
H          1.52120       -5.99500       -1.51430
H          1.55080       -6.40230       -3.23200
H          2.33610       -7.46520       -2.06090
H          0.05830       -1.56220       -3.90220
H         -1.60260       -2.02480       -5.41370
H         -0.81030       -7.33530       -8.16310
H         -1.59470       -6.44130       -9.47800
H         -3.75260       -7.58400       -8.97510
H         -2.97300       -8.48970       -7.67420
H         -2.48230       -8.75380       -9.35060
H        -10.22650        3.42570       -4.27050
H        -10.29590        2.79100       -5.92670
H         -9.69460        5.20270       -5.92840
H         -8.35630        4.23260       -6.55380
H         -8.29380        4.86580       -4.90610
H         -8.72150       -1.65910       -5.84330
H         -8.50640       -6.14860       -7.51060
H         -7.84450      -11.95160       -9.49920
H         -9.17540      -12.37830       -8.40560
H         -7.87510      -11.46710       -6.47840
H         -6.54860      -11.05350       -7.56930
H         -6.97890      -12.74640       -7.30510
H        -16.27440       -0.33910       -5.56830
H        -14.85550       -0.56430       -4.52730
H        -16.95330       -0.97190       -3.26040
H        -15.99650       -2.45370       -3.37340
H        -17.41350       -2.23490       -4.40590
H        -15.65430       -6.16290       -7.62070
H        -15.78040       -8.61100       -8.49510
