108

C          2.90580        3.05600        4.75440
O          2.57950        3.48010        5.98440
C          2.78510        4.81330        6.00850
C          3.24460        5.26140        4.81070
C          3.58600        6.65880        4.43160
C          3.32770        4.10100        3.96750
C          3.75040        4.07710        2.59670
C          3.69700        2.98240        1.80930
C          4.07370        2.98220        0.44040
C          3.92560        1.97180       -0.45820
C          3.35080        0.68800       -0.30540
S          2.88420       -0.01680        1.20980
C          2.16060       -1.40070        0.47730
C          2.36010       -1.37780       -0.91180
C          3.02790       -0.19470       -1.35240
C          3.25700       -0.00450       -2.72970
C          2.86010       -0.94600       -3.64000
C          3.09770       -0.76770       -5.10870
C          2.20890       -2.11720       -3.18900
C          1.95890       -2.33490       -1.86630
C          1.46650       -2.37320        1.25170
O          1.22910       -3.57680        0.66320
C          0.65590       -4.37710        1.58020
C          0.51770       -3.74090        2.77070
C         -0.05330       -4.29670        4.02720
C          1.01470       -2.40910        2.57400
C          0.95470       -1.43410        3.63380
C          0.66660       -0.11710        3.56690
C          0.38350        0.59880        2.36800
C          0.38650        1.95000        2.30070
C          0.39480        2.76260        1.13080
O          0.68200        4.07360        1.36290
C          0.90890        4.66130        0.17890
C          0.77740        3.77740       -0.84560
C          0.96160        4.03900       -2.29840
C          0.41070        2.52910       -0.24770
C          0.14120        1.35000       -1.01880
C         -0.69560        0.34470       -0.69150
C         -0.82480       -0.82790       -1.49400
C         -1.40930       -1.99450       -1.13350
C         -1.97950       -2.33060        0.13010
O         -1.77990       -1.53160        1.20640
C         -2.33200       -2.13170        2.27460
C         -2.89610       -3.32080        1.93760
C         -3.61010       -4.27080        2.83360
C         -2.68760       -3.46760        0.52730
C         -3.22950       -4.54720       -0.24330
C         -3.47230       -4.52580       -1.56900
C         -4.10960       -5.58370       -2.28390
C         -4.55620       -5.51390       -3.55760
C         -4.58260       -4.37400       -4.42940
O         -4.53590       -4.64010       -5.76060
C         -4.56210       -3.46390       -6.40930
C         -4.63270       -2.41660       -5.54160
C         -4.71360       -0.97400       -5.89860
C         -4.66210       -2.99780       -4.23450
C         -4.86440       -2.31760       -2.97670
C         -4.40150       -1.10140       -2.65170
C         -4.62100       -0.50340       -1.36040
C         -4.10710        0.66640       -0.98890
H          2.81730        2.00610        4.55720
H          2.56970        5.32540        6.92560
H          4.62540        6.72350        4.11130
H          2.95630        6.99180        3.60730
H          3.43810        7.32560        5.27700
H          4.11020        5.01320        2.19040
H          3.32160        2.06530        2.23310
H          4.49520        3.90850        0.06860
H          4.24710        2.18280       -1.47070
H          3.75820        0.89070       -3.06870
H          3.71390       -1.58020       -5.49260
H          2.15250       -0.78520       -5.65110
H          3.59950        0.17490       -5.31360
H          1.90400       -2.85070       -3.92180
H          1.45730       -3.23070       -1.54210
H          0.39270       -5.36730        1.26390
H         -0.39390       -5.31540        3.86240
H          0.69930       -4.30490        4.81560
H         -0.89320       -3.69330        4.36580
H          1.09060       -1.86580        4.61870
H          0.67150        0.45380        4.48770
H          0.21420        0.00610        1.48730
H          0.54440        2.52080        3.20860
H          1.15280        5.70580        0.18860
H          1.25110        5.07400       -2.46050
H          1.73820        3.38930       -2.70090
H          0.04020        3.84070       -2.84460
H          0.66460        1.29670       -1.96670
H         -1.29390        0.41100        0.20220
H         -0.36970       -0.78230       -2.47560
H         -1.41240       -2.80130       -1.85050
H         -2.25570       -1.61370        3.21080
H         -3.10870       -5.23800        2.84120
H         -4.63330       -4.42250        2.49190
H         -3.63610       -3.88300        3.84870
H         -3.54940       -5.40840        0.33110
H         -3.21140       -3.65330       -2.14280
H         -4.22260       -6.52490       -1.75980
H         -4.91620       -6.41900       -4.03070
H         -4.52920       -3.49530       -7.48080
H         -5.02780       -0.86300       -6.93380
H         -5.42360       -0.46370       -5.25070
H         -3.74200       -0.49360       -5.78350
H         -5.43160       -2.87660       -2.24130
H         -3.78990       -0.54010       -3.34280
H         -5.23260       -1.07140       -0.67010
H         -4.27830        1.08090       -0.01060
H         -3.48650        1.24620       -1.65220
