
  xtb     03032220163D
 energy: -216.980404481752 gnorm: 0.000660625391 xtb: 6.4.1 (unknown)
110121  0     0  0            999 V2000
    0.5474    7.3749    3.3624 C   0  0  0  0  0  0  0  0  0  0  0  0
    0.3137    5.6829    3.4239 S   0  0  0  0  0  0  0  0  0  0  0  0
   -1.3902    5.7930    3.0070 C   0  0  0  0  0  0  0  0  0  0  0  0
   -1.7200    7.1234    2.8410 C   0  0  0  0  0  0  0  0  0  0  0  0
   -3.1561    7.9875    2.3602 S   0  0  0  0  0  0  0  0  0  0  0  0
   -2.3044    9.5146    2.4448 C   0  0  0  0  0  0  0  0  0  0  0  0
   -3.0755   10.7235    2.1365 C   0  0  0  0  0  0  0  0  0  0  0  0
   -4.2487   10.7055    1.8507 O   0  0  0  0  0  0  0  0  0  0  0  0
   -2.3315   11.8253    2.2149 O   0  0  0  0  0  0  0  0  0  0  0  0
   -2.9961   13.0579    1.9352 C   0  0  0  0  0  0  0  0  0  0  0  0
   -1.9996   14.1851    2.1231 C   0  0  0  0  0  0  0  0  0  0  0  0
   -1.0011    9.3692    2.8133 C   0  0  0  0  0  0  0  0  0  0  0  0
   -0.6200    8.0163    3.0384 C   0  0  0  0  0  0  0  0  0  0  0  0
   -0.1390   10.3764    2.9570 F   0  0  0  0  0  0  0  0  0  0  0  0
   -2.1186    4.5804    2.8605 C   0  0  0  0  0  0  0  0  0  0  0  0
   -1.2221    3.1381    2.5065 S   0  0  0  0  0  0  0  0  0  0  0  0
   -2.6396    2.1412    2.4975 C   0  0  0  0  0  0  0  0  0  0  0  0
   -3.7838    2.9193    2.7107 C   0  0  0  0  0  0  0  0  0  0  0  0
   -3.4879    4.2989    2.9495 C   0  0  0  0  0  0  0  0  0  0  0  0
   -4.5415    5.1809    3.2612 C   0  0  0  0  0  0  0  0  0  0  0  0
   -5.8396    4.7502    3.2353 C   0  0  0  0  0  0  0  0  0  0  0  0
   -6.9722    5.6753    3.5489 C   0  0  0  0  0  0  0  0  0  0  0  0
   -6.1245    3.4087    2.8830 C   0  0  0  0  0  0  0  0  0  0  0  0
   -5.1321    2.5092    2.6326 C   0  0  0  0  0  0  0  0  0  0  0  0
   -2.5107    0.7439    2.2934 C   0  0  0  0  0  0  0  0  0  0  0  0
   -1.3031    0.1436    1.2052 S   0  0  0  0  0  0  0  0  0  0  0  0
   -1.6988   -1.5126    1.5416 C   0  0  0  0  0  0  0  0  0  0  0  0
   -2.7712   -1.5934    2.4406 C   0  0  0  0  0  0  0  0  0  0  0  0
   -3.2091   -0.3137    2.8969 C   0  0  0  0  0  0  0  0  0  0  0  0
   -4.1893   -0.2401    3.9071 C   0  0  0  0  0  0  0  0  0  0  0  0
   -4.8004   -1.3795    4.3571 C   0  0  0  0  0  0  0  0  0  0  0  0
   -5.8374   -1.3343    5.4353 C   0  0  0  0  0  0  0  0  0  0  0  0
   -4.4608   -2.6281    3.7845 C   0  0  0  0  0  0  0  0  0  0  0  0
   -3.4677   -2.7449    2.8578 C   0  0  0  0  0  0  0  0  0  0  0  0
   -0.9587   -2.5513    0.9346 C   0  0  0  0  0  0  0  0  0  0  0  0
   -0.3797   -2.3823   -0.6990 S   0  0  0  0  0  0  0  0  0  0  0  0
    0.3698   -3.9652   -0.7105 C   0  0  0  0  0  0  0  0  0  0  0  0
    0.1752   -4.5637    0.5256 C   0  0  0  0  0  0  0  0  0  0  0  0
    0.7157   -6.0707    1.1897 S   0  0  0  0  0  0  0  0  0  0  0  0
    0.0201   -5.6467    2.7381 C   0  0  0  0  0  0  0  0  0  0  0  0
    0.1913   -6.6056    3.8312 C   0  0  0  0  0  0  0  0  0  0  0  0
    0.7976   -7.6435    3.7115 O   0  0  0  0  0  0  0  0  0  0  0  0
   -0.4028   -6.2033    4.9558 O   0  0  0  0  0  0  0  0  0  0  0  0
   -0.2808   -7.0790    6.0770 C   0  0  0  0  0  0  0  0  0  0  0  0
   -1.0886   -6.4995    7.2220 C   0  0  0  0  0  0  0  0  0  0  0  0
   -0.5951   -4.4246    2.7234 C   0  0  0  0  0  0  0  0  0  0  0  0
   -0.5603   -3.7846    1.4574 C   0  0  0  0  0  0  0  0  0  0  0  0
   -1.1256   -3.8651    3.8115 F   0  0  0  0  0  0  0  0  0  0  0  0
    1.0936   -4.4798   -1.8041 C   0  0  0  0  0  0  0  0  0  0  0  0
    1.9968   -5.9585   -1.6034 S   0  0  0  0  0  0  0  0  0  0  0  0
    2.6290   -5.9137   -3.2348 C   0  0  0  0  0  0  0  0  0  0  0  0
    2.1227   -4.8127   -3.8932 C   0  0  0  0  0  0  0  0  0  0  0  0
    2.2204   -4.2857   -5.5428 S   0  0  0  0  0  0  0  0  0  0  0  0
    1.1265   -2.9718   -5.2007 C   0  0  0  0  0  0  0  0  0  0  0  0
    0.7516   -2.0586   -6.2833 C   0  0  0  0  0  0  0  0  0  0  0  0
    0.0045   -1.1201   -6.1774 O   0  0  0  0  0  0  0  0  0  0  0  0
    1.3708   -2.4233   -7.4151 O   0  0  0  0  0  0  0  0  0  0  0  0
    1.1034   -1.6443   -8.5792 C   0  0  0  0  0  0  0  0  0  0  0  0
   -0.1811   -2.0917   -9.2626 C   0  0  0  0  0  0  0  0  0  0  0  0
    0.7169   -2.9503   -3.8954 C   0  0  0  0  0  0  0  0  0  0  0  0
    1.2549   -4.0001   -3.1076 C   0  0  0  0  0  0  0  0  0  0  0  0
   -0.1339   -2.0401   -3.4231 F   0  0  0  0  0  0  0  0  0  0  0  0
    3.4887   -6.9431   -3.7038 C   0  0  0  0  0  0  0  0  0  0  0  0
    3.2575   -8.5913   -3.1889 S   0  0  0  0  0  0  0  0  0  0  0  0
    4.5358   -9.1783   -4.1817 C   0  0  0  0  0  0  0  0  0  0  0  0
    5.1194   -8.1592   -4.8667 C   0  0  0  0  0  0  0  0  0  0  0  0
    6.4611   -8.0693   -5.9741 S   0  0  0  0  0  0  0  0  0  0  0  0
    6.3163   -6.3241   -6.0220 C   0  0  0  0  0  0  0  0  0  0  0  0
    7.2631   -5.5495   -6.8264 C   0  0  0  0  0  0  0  0  0  0  0  0
    7.2639   -4.3502   -6.9366 O   0  0  0  0  0  0  0  0  0  0  0  0
    8.1252   -6.3752   -7.4394 O   0  0  0  0  0  0  0  0  0  0  0  0
    9.1270   -5.7690   -8.2538 C   0  0  0  0  0  0  0  0  0  0  0  0
   10.3083   -5.2930   -7.4204 C   0  0  0  0  0  0  0  0  0  0  0  0
    5.2878   -5.8549   -5.2530 C   0  0  0  0  0  0  0  0  0  0  0  0
    4.5490   -6.8744   -4.5974 C   0  0  0  0  0  0  0  0  0  0  0  0
    5.0383   -4.5594   -5.0827 F   0  0  0  0  0  0  0  0  0  0  0  0
    1.5100    7.8023    3.5551 H   0  0  0  0  0  0  0  0  0  0  0  0
   -3.8515   13.1587    2.6131 H   0  0  0  0  0  0  0  0  0  0  0  0
   -3.3792   13.0260    0.9088 H   0  0  0  0  0  0  0  0  0  0  0  0
   -2.4813   15.1365    1.9177 H   0  0  0  0  0  0  0  0  0  0  0  0
   -1.1587   14.0559    1.4473 H   0  0  0  0  0  0  0  0  0  0  0  0
   -1.6253   14.1857    3.1431 H   0  0  0  0  0  0  0  0  0  0  0  0
   -4.3168    6.2019    3.5173 H   0  0  0  0  0  0  0  0  0  0  0  0
   -7.5185    5.3222    4.4232 H   0  0  0  0  0  0  0  0  0  0  0  0
   -6.6106    6.6811    3.7430 H   0  0  0  0  0  0  0  0  0  0  0  0
   -7.6706    5.7108    2.7141 H   0  0  0  0  0  0  0  0  0  0  0  0
   -7.1580    3.1018    2.8160 H   0  0  0  0  0  0  0  0  0  0  0  0
   -5.3620    1.4929    2.3533 H   0  0  0  0  0  0  0  0  0  0  0  0
   -4.4440    0.7202    4.3279 H   0  0  0  0  0  0  0  0  0  0  0  0
   -6.7605   -1.8018    5.0943 H   0  0  0  0  0  0  0  0  0  0  0  0
   -6.0501   -0.3099    5.7299 H   0  0  0  0  0  0  0  0  0  0  0  0
   -5.4913   -1.8841    6.3103 H   0  0  0  0  0  0  0  0  0  0  0  0
   -4.9984   -3.5065    4.1093 H   0  0  0  0  0  0  0  0  0  0  0  0
   -3.2198   -3.7039    2.4314 H   0  0  0  0  0  0  0  0  0  0  0  0
   -0.6433   -8.0728    5.7898 H   0  0  0  0  0  0  0  0  0  0  0  0
    0.7796   -7.1685    6.3395 H   0  0  0  0  0  0  0  0  0  0  0  0
   -2.1338   -6.4160    6.9374 H   0  0  0  0  0  0  0  0  0  0  0  0
   -0.7196   -5.5092    7.4741 H   0  0  0  0  0  0  0  0  0  0  0  0
   -1.0047   -7.1455    8.0909 H   0  0  0  0  0  0  0  0  0  0  0  0
    1.0317   -0.5903   -8.2902 H   0  0  0  0  0  0  0  0  0  0  0  0
    1.9702   -1.7974   -9.2254 H   0  0  0  0  0  0  0  0  0  0  0  0
   -0.1298   -3.1512   -9.5024 H   0  0  0  0  0  0  0  0  0  0  0  0
   -0.3220   -1.5259  -10.1790 H   0  0  0  0  0  0  0  0  0  0  0  0
   -1.0306   -1.9172   -8.6067 H   0  0  0  0  0  0  0  0  0  0  0  0
    4.7744  -10.2213   -4.1916 H   0  0  0  0  0  0  0  0  0  0  0  0
    8.6811   -4.9268   -8.7936 H   0  0  0  0  0  0  0  0  0  0  0  0
    9.4272   -6.5482   -8.9572 H   0  0  0  0  0  0  0  0  0  0  0  0
    9.9877   -4.5116   -6.7355 H   0  0  0  0  0  0  0  0  0  0  0  0
   10.7214   -6.1197   -6.8473 H   0  0  0  0  0  0  0  0  0  0  0  0
   11.0776   -4.8932   -8.0747 H   0  0  0  0  0  0  0  0  0  0  0  0
  1  2  1  0  0  0  0
  2  3  1  0  0  0  0
  3  4  2  0  0  0  0
  4  5  1  0  0  0  0
  5  6  1  0  0  0  0
  6  7  1  0  0  0  0
  7  8  2  0  0  0  0
  7  9  1  0  0  0  0
  9 10  1  0  0  0  0
 10 11  1  0  0  0  0
  6 12  2  0  0  0  0
 12 13  1  0  0  0  0
 12 14  1  0  0  0  0
  3 15  1  0  0  0  0
 15 16  1  0  0  0  0
 16 17  1  0  0  0  0
 17 18  2  0  0  0  0
 18 19  1  0  0  0  0
 19 20  1  0  0  0  0
 20 21  2  0  0  0  0
 21 22  1  0  0  0  0
 21 23  1  0  0  0  0
 23 24  2  0  0  0  0
 17 25  1  0  0  0  0
 25 26  1  0  0  0  0
 26 27  1  0  0  0  0
 27 28  2  0  0  0  0
 28 29  1  0  0  0  0
 29 30  1  0  0  0  0
 30 31  2  0  0  0  0
 31 32  1  0  0  0  0
 31 33  1  0  0  0  0
 33 34  2  0  0  0  0
 27 35  1  0  0  0  0
 35 36  1  0  0  0  0
 36 37  1  0  0  0  0
 37 38  2  0  0  0  0
 38 39  1  0  0  0  0
 39 40  1  0  0  0  0
 40 41  1  0  0  0  0
 41 42  2  0  0  0  0
 41 43  1  0  0  0  0
 43 44  1  0  0  0  0
 44 45  1  0  0  0  0
 40 46  2  0  0  0  0
 46 47  1  0  0  0  0
 46 48  1  0  0  0  0
 37 49  1  0  0  0  0
 49 50  1  0  0  0  0
 50 51  1  0  0  0  0
 51 52  2  0  0  0  0
 52 53  1  0  0  0  0
 53 54  1  0  0  0  0
 54 55  1  0  0  0  0
 55 56  2  0  0  0  0
 55 57  1  0  0  0  0
 57 58  1  0  0  0  0
 58 59  1  0  0  0  0
 54 60  2  0  0  0  0
 60 61  1  0  0  0  0
 60 62  1  0  0  0  0
 51 63  1  0  0  0  0
 63 64  1  0  0  0  0
 64 65  1  0  0  0  0
 65 66  2  0  0  0  0
 66 67  1  0  0  0  0
 67 68  1  0  0  0  0
 68 69  1  0  0  0  0
 69 70  2  0  0  0  0
 69 71  1  0  0  0  0
 71 72  1  0  0  0  0
 72 73  1  0  0  0  0
 68 74  2  0  0  0  0
 74 75  1  0  0  0  0
 74 76  1  0  0  0  0
 13  1  2  0  0  0  0
 19 15  2  0  0  0  0
 29 25  2  0  0  0  0
 47 35  2  0  0  0  0
 61 49  2  0  0  0  0
 75 63  2  0  0  0  0
 13  4  1  0  0  0  0
 24 18  1  0  0  0  0
 34 28  1  0  0  0  0
 47 38  1  0  0  0  0
 61 52  1  0  0  0  0
 75 66  1  0  0  0  0
  1 77  1  0  0  0  0
 10 78  1  0  0  0  0
 10 79  1  0  0  0  0
 11 80  1  0  0  0  0
 11 81  1  0  0  0  0
 11 82  1  0  0  0  0
 20 83  1  0  0  0  0
 22 84  1  0  0  0  0
 22 85  1  0  0  0  0
 22 86  1  0  0  0  0
 23 87  1  0  0  0  0
 24 88  1  0  0  0  0
 30 89  1  0  0  0  0
 32 90  1  0  0  0  0
 32 91  1  0  0  0  0
 32 92  1  0  0  0  0
 33 93  1  0  0  0  0
 34 94  1  0  0  0  0
 44 95  1  0  0  0  0
 44 96  1  0  0  0  0
 45 97  1  0  0  0  0
 45 98  1  0  0  0  0
 45 99  1  0  0  0  0
 58100  1  0  0  0  0
 58101  1  0  0  0  0
 59102  1  0  0  0  0
 59103  1  0  0  0  0
 59104  1  0  0  0  0
 65105  1  0  0  0  0
 72106  1  0  0  0  0
 72107  1  0  0  0  0
 73108  1  0  0  0  0
 73109  1  0  0  0  0
 73110  1  0  0  0  0
M  END
