
  xtb     03032211163D
 energy: -183.882184711519 gnorm: 0.000184622084 xtb: 6.4.1 (unknown)
130141  0     0  0            999 V2000
    8.1802   -5.1331    5.6619 C   0  0  0  0  0  0  0  0  0  0  0  0
    7.3742   -4.7785    4.1993 S   0  0  0  0  0  0  0  0  0  0  0  0
    6.0855   -3.9474    5.0166 C   0  0  0  0  0  0  0  0  0  0  0  0
    6.2792   -3.9897    6.3970 C   0  0  0  0  0  0  0  0  0  0  0  0
    7.4968   -4.6589    6.7587 C   0  0  0  0  0  0  0  0  0  0  0  0
    7.8520   -4.7850    8.1239 C   0  0  0  0  0  0  0  0  0  0  0  0
    7.0198   -4.3089    9.0927 C   0  0  0  0  0  0  0  0  0  0  0  0
    7.3575   -4.4194   10.5478 C   0  0  0  0  0  0  0  0  0  0  0  0
    5.7851   -3.7080    8.7256 C   0  0  0  0  0  0  0  0  0  0  0  0
    5.4146   -3.5507    7.4256 C   0  0  0  0  0  0  0  0  0  0  0  0
    5.0309   -3.3581    4.2645 C   0  0  0  0  0  0  0  0  0  0  0  0
    4.4253   -4.1591    2.8559 S   0  0  0  0  0  0  0  0  0  0  0  0
    3.2420   -2.9332    2.5270 C   0  0  0  0  0  0  0  0  0  0  0  0
    3.3258   -1.9224    3.4958 C   0  0  0  0  0  0  0  0  0  0  0  0
    4.3572   -2.1519    4.4625 C   0  0  0  0  0  0  0  0  0  0  0  0
    4.6518   -1.1639    5.4272 C   0  0  0  0  0  0  0  0  0  0  0  0
    3.8956   -0.0297    5.5058 C   0  0  0  0  0  0  0  0  0  0  0  0
    4.1855    1.0402    6.5124 C   0  0  0  0  0  0  0  0  0  0  0  0
    2.8042    0.1380    4.6189 C   0  0  0  0  0  0  0  0  0  0  0  0
    2.5288   -0.7643    3.6368 C   0  0  0  0  0  0  0  0  0  0  0  0
    2.3967   -3.0174    1.3822 C   0  0  0  0  0  0  0  0  0  0  0  0
    1.6707   -1.5616    0.7414 S   0  0  0  0  0  0  0  0  0  0  0  0
    0.8724   -2.4456   -0.5229 C   0  0  0  0  0  0  0  0  0  0  0  0
    1.1478   -3.7881   -0.4387 C   0  0  0  0  0  0  0  0  0  0  0  0
    2.0287   -4.1121    0.6190 C   0  0  0  0  0  0  0  0  0  0  0  0
    2.4692   -5.5280    0.8324 C   0  0  0  0  0  0  0  0  0  0  0  0
    3.7725   -5.7972    0.0702 C   0  0  0  0  0  0  0  0  0  0  0  0
    1.3468   -6.4694    0.3843 C   0  0  0  0  0  0  0  0  0  0  0  0
    0.9660   -6.2305   -1.0708 C   0  0  0  0  0  0  0  0  0  0  0  0
    0.4562   -4.7998   -1.3114 C   0  0  0  0  0  0  0  0  0  0  0  0
   -1.0220   -4.7263   -1.0417 C   0  0  0  0  0  0  0  0  0  0  0  0
   -1.9338   -4.5031   -1.9679 C   0  0  0  0  0  0  0  0  0  0  0  0
   -0.0001   -1.7302   -1.4224 C   0  0  0  0  0  0  0  0  0  0  0  0
   -1.3258   -0.8573   -0.7030 S   0  0  0  0  0  0  0  0  0  0  0  0
   -1.8674   -0.3073   -2.2633 C   0  0  0  0  0  0  0  0  0  0  0  0
   -1.0493   -0.7758   -3.2611 C   0  0  0  0  0  0  0  0  0  0  0  0
    0.0300   -1.5678   -2.7839 C   0  0  0  0  0  0  0  0  0  0  0  0
    1.1065   -2.0898   -3.6990 C   0  0  0  0  0  0  0  0  0  0  0  0
    2.5069   -1.9464   -3.1005 C   0  0  0  0  0  0  0  0  0  0  0  0
    1.0446   -1.3545   -5.0404 C   0  0  0  0  0  0  0  0  0  0  0  0
   -0.3741   -1.3572   -5.5871 C   0  0  0  0  0  0  0  0  0  0  0  0
   -1.2737   -0.4696   -4.7173 C   0  0  0  0  0  0  0  0  0  0  0  0
   -2.7090   -0.6514   -5.1389 C   0  0  0  0  0  0  0  0  0  0  0  0
   -3.4571   -1.6796   -4.7867 C   0  0  0  0  0  0  0  0  0  0  0  0
   -2.9657    0.6190   -2.3498 C   0  0  0  0  0  0  0  0  0  0  0  0
   -2.8025    2.0132   -3.3858 S   0  0  0  0  0  0  0  0  0  0  0  0
   -4.3055    2.6729   -2.8071 C   0  0  0  0  0  0  0  0  0  0  0  0
   -4.8829    1.8489   -1.8773 C   0  0  0  0  0  0  0  0  0  0  0  0
   -4.1352    0.6685   -1.6303 C   0  0  0  0  0  0  0  0  0  0  0  0
   -4.6233   -0.4222   -0.7148 C   0  0  0  0  0  0  0  0  0  0  0  0
   -4.6010   -1.7863   -1.4073 C   0  0  0  0  0  0  0  0  0  0  0  0
   -6.0502   -0.1272   -0.2423 C   0  0  0  0  0  0  0  0  0  0  0  0
   -6.2166    1.3344    0.1413 C   0  0  0  0  0  0  0  0  0  0  0  0
   -6.1251    2.2156   -1.1111 C   0  0  0  0  0  0  0  0  0  0  0  0
   -6.0972    3.6568   -0.6921 C   0  0  0  0  0  0  0  0  0  0  0  0
   -7.0948    4.5051   -0.8503 C   0  0  0  0  0  0  0  0  0  0  0  0
   -4.8222    3.8918   -3.3778 C   0  0  0  0  0  0  0  0  0  0  0  0
   -6.4203    3.8808   -4.0783 S   0  0  0  0  0  0  0  0  0  0  0  0
   -6.2351    5.5055   -4.5971 C   0  0  0  0  0  0  0  0  0  0  0  0
   -5.0246    6.0248   -4.2638 C   0  0  0  0  0  0  0  0  0  0  0  0
   -4.2071    5.1033   -3.5533 C   0  0  0  0  0  0  0  0  0  0  0  0
   -2.8303    5.4478   -3.0525 C   0  0  0  0  0  0  0  0  0  0  0  0
   -2.6733    5.1353   -1.5624 C   0  0  0  0  0  0  0  0  0  0  0  0
   -2.5185    6.9303   -3.2909 C   0  0  0  0  0  0  0  0  0  0  0  0
   -3.0301    7.4150   -4.6405 C   0  0  0  0  0  0  0  0  0  0  0  0
   -4.5637    7.4045   -4.6408 C   0  0  0  0  0  0  0  0  0  0  0  0
   -5.0998    7.7966   -5.9845 C   0  0  0  0  0  0  0  0  0  0  0  0
   -5.8331    8.8689   -6.2147 C   0  0  0  0  0  0  0  0  0  0  0  0
    9.1062   -5.6720    5.6420 H   0  0  0  0  0  0  0  0  0  0  0  0
    8.7832   -5.2715    8.3758 H   0  0  0  0  0  0  0  0  0  0  0  0
    8.3123   -4.9190   10.6901 H   0  0  0  0  0  0  0  0  0  0  0  0
    6.5866   -4.9816   11.0737 H   0  0  0  0  0  0  0  0  0  0  0  0
    7.4114   -3.4287   10.9987 H   0  0  0  0  0  0  0  0  0  0  0  0
    5.1256   -3.3774    9.5152 H   0  0  0  0  0  0  0  0  0  0  0  0
    4.4615   -3.1139    7.1700 H   0  0  0  0  0  0  0  0  0  0  0  0
    5.4927   -1.3121    6.0877 H   0  0  0  0  0  0  0  0  0  0  0  0
    4.3989    1.9833    6.0100 H   0  0  0  0  0  0  0  0  0  0  0  0
    3.3213    1.1968    7.1575 H   0  0  0  0  0  0  0  0  0  0  0  0
    5.0389    0.7727    7.1303 H   0  0  0  0  0  0  0  0  0  0  0  0
    2.1881    1.0194    4.7228 H   0  0  0  0  0  0  0  0  0  0  0  0
    1.6961   -0.5979    2.9735 H   0  0  0  0  0  0  0  0  0  0  0  0
    2.6569   -5.6978    1.8984 H   0  0  0  0  0  0  0  0  0  0  0  0
    3.6635   -5.5550   -0.9836 H   0  0  0  0  0  0  0  0  0  0  0  0
    4.0516   -6.8439    0.1654 H   0  0  0  0  0  0  0  0  0  0  0  0
    4.5802   -5.1895    0.4686 H   0  0  0  0  0  0  0  0  0  0  0  0
    1.6701   -7.5043    0.5126 H   0  0  0  0  0  0  0  0  0  0  0  0
    0.4746   -6.3102    1.0221 H   0  0  0  0  0  0  0  0  0  0  0  0
    1.8309   -6.4206   -1.7070 H   0  0  0  0  0  0  0  0  0  0  0  0
    0.1837   -6.9328   -1.3680 H   0  0  0  0  0  0  0  0  0  0  0  0
    0.6199   -4.5442   -2.3630 H   0  0  0  0  0  0  0  0  0  0  0  0
   -1.3135   -4.8825   -0.0118 H   0  0  0  0  0  0  0  0  0  0  0  0
   -2.9860   -4.4776   -1.7407 H   0  0  0  0  0  0  0  0  0  0  0  0
   -1.6637   -4.3394   -2.9991 H   0  0  0  0  0  0  0  0  0  0  0  0
    0.9175   -3.1549   -3.8928 H   0  0  0  0  0  0  0  0  0  0  0  0
    3.2539   -2.1872   -3.8543 H   0  0  0  0  0  0  0  0  0  0  0  0
    2.6506   -2.6108   -2.2544 H   0  0  0  0  0  0  0  0  0  0  0  0
    2.6705   -0.9241   -2.7667 H   0  0  0  0  0  0  0  0  0  0  0  0
    1.7216   -1.8405   -5.7460 H   0  0  0  0  0  0  0  0  0  0  0  0
    1.3819   -0.3242   -4.9051 H   0  0  0  0  0  0  0  0  0  0  0  0
   -0.3921   -0.9890   -6.6145 H   0  0  0  0  0  0  0  0  0  0  0  0
   -0.7653   -2.3772   -5.5899 H   0  0  0  0  0  0  0  0  0  0  0  0
   -0.9866    0.5755   -4.8884 H   0  0  0  0  0  0  0  0  0  0  0  0
   -3.1000    0.0997   -5.8113 H   0  0  0  0  0  0  0  0  0  0  0  0
   -3.0925   -2.4456   -4.1225 H   0  0  0  0  0  0  0  0  0  0  0  0
   -4.4683   -1.7943   -5.1378 H   0  0  0  0  0  0  0  0  0  0  0  0
   -3.9615   -0.4620    0.1596 H   0  0  0  0  0  0  0  0  0  0  0  0
   -3.5886   -2.0856   -1.6567 H   0  0  0  0  0  0  0  0  0  0  0  0
   -5.0311   -2.5387   -0.7492 H   0  0  0  0  0  0  0  0  0  0  0  0
   -5.1853   -1.7490   -2.3243 H   0  0  0  0  0  0  0  0  0  0  0  0
   -6.7515   -0.3657   -1.0458 H   0  0  0  0  0  0  0  0  0  0  0  0
   -6.2840   -0.7707    0.6079 H   0  0  0  0  0  0  0  0  0  0  0  0
   -5.4312    1.6203    0.8451 H   0  0  0  0  0  0  0  0  0  0  0  0
   -7.1810    1.4983    0.6254 H   0  0  0  0  0  0  0  0  0  0  0  0
   -7.0067    2.0380   -1.7386 H   0  0  0  0  0  0  0  0  0  0  0  0
   -5.1889    3.9649   -0.1912 H   0  0  0  0  0  0  0  0  0  0  0  0
   -7.0384    5.5235   -0.5049 H   0  0  0  0  0  0  0  0  0  0  0  0
   -8.0088    4.2202   -1.3452 H   0  0  0  0  0  0  0  0  0  0  0  0
   -7.0328    5.9854   -5.1285 H   0  0  0  0  0  0  0  0  0  0  0  0
   -2.1077    4.8393   -3.6115 H   0  0  0  0  0  0  0  0  0  0  0  0
   -1.6916    5.4551   -1.2194 H   0  0  0  0  0  0  0  0  0  0  0  0
   -2.7735    4.0716   -1.3691 H   0  0  0  0  0  0  0  0  0  0  0  0
   -3.4314    5.6649   -0.9888 H   0  0  0  0  0  0  0  0  0  0  0  0
   -2.9878    7.5253   -2.5032 H   0  0  0  0  0  0  0  0  0  0  0  0
   -1.4394    7.0812   -3.2218 H   0  0  0  0  0  0  0  0  0  0  0  0
   -2.6735    8.4273   -4.8405 H   0  0  0  0  0  0  0  0  0  0  0  0
   -2.6611    6.7608   -5.4338 H   0  0  0  0  0  0  0  0  0  0  0  0
   -4.9213    8.1210   -3.8905 H   0  0  0  0  0  0  0  0  0  0  0  0
   -4.8348    7.1281   -6.7935 H   0  0  0  0  0  0  0  0  0  0  0  0
   -6.1890    9.1176   -7.2002 H   0  0  0  0  0  0  0  0  0  0  0  0
   -6.1109    9.5469   -5.4239 H   0  0  0  0  0  0  0  0  0  0  0  0
  1  2  1  0  0  0  0
  2  3  1  0  0  0  0
  3  4  2  0  0  0  0
  4  5  1  0  0  0  0
  5  6  1  0  0  0  0
  6  7  2  0  0  0  0
  7  8  1  0  0  0  0
  7  9  1  0  0  0  0
  9 10  2  0  0  0  0
  3 11  1  0  0  0  0
 11 12  1  0  0  0  0
 12 13  1  0  0  0  0
 13 14  2  0  0  0  0
 14 15  1  0  0  0  0
 15 16  1  0  0  0  0
 16 17  2  0  0  0  0
 17 18  1  0  0  0  0
 17 19  1  0  0  0  0
 19 20  2  0  0  0  0
 13 21  1  0  0  0  0
 21 22  1  0  0  0  0
 22 23  1  0  0  0  0
 23 24  2  0  0  0  0
 24 25  1  0  0  0  0
 25 26  1  0  0  0  0
 26 27  1  0  0  0  0
 26 28  1  0  0  0  0
 28 29  1  0  0  0  0
 29 30  1  0  0  0  0
 30 31  1  0  0  0  0
 31 32  2  0  0  0  0
 23 33  1  0  0  0  0
 33 34  1  0  0  0  0
 34 35  1  0  0  0  0
 35 36  2  0  0  0  0
 36 37  1  0  0  0  0
 37 38  1  0  0  0  0
 38 39  1  0  0  0  0
 38 40  1  0  0  0  0
 40 41  1  0  0  0  0
 41 42  1  0  0  0  0
 42 43  1  0  0  0  0
 43 44  2  0  0  0  0
 35 45  1  0  0  0  0
 45 46  1  0  0  0  0
 46 47  1  0  0  0  0
 47 48  2  0  0  0  0
 48 49  1  0  0  0  0
 49 50  1  0  0  0  0
 50 51  1  0  0  0  0
 50 52  1  0  0  0  0
 52 53  1  0  0  0  0
 53 54  1  0  0  0  0
 54 55  1  0  0  0  0
 55 56  2  0  0  0  0
 47 57  1  0  0  0  0
 57 58  1  0  0  0  0
 58 59  1  0  0  0  0
 59 60  2  0  0  0  0
 60 61  1  0  0  0  0
 61 62  1  0  0  0  0
 62 63  1  0  0  0  0
 62 64  1  0  0  0  0
 64 65  1  0  0  0  0
 65 66  1  0  0  0  0
 66 67  1  0  0  0  0
 67 68  2  0  0  0  0
  5  1  2  0  0  0  0
 15 11  2  0  0  0  0
 25 21  2  0  0  0  0
 37 33  2  0  0  0  0
 49 45  2  0  0  0  0
 61 57  2  0  0  0  0
 10  4  1  0  0  0  0
 20 14  1  0  0  0  0
 30 24  1  0  0  0  0
 42 36  1  0  0  0  0
 54 48  1  0  0  0  0
 66 60  1  0  0  0  0
  1 69  1  0  0  0  0
  6 70  1  0  0  0  0
  8 71  1  0  0  0  0
  8 72  1  0  0  0  0
  8 73  1  0  0  0  0
  9 74  1  0  0  0  0
 10 75  1  0  0  0  0
 16 76  1  0  0  0  0
 18 77  1  0  0  0  0
 18 78  1  0  0  0  0
 18 79  1  0  0  0  0
 19 80  1  0  0  0  0
 20 81  1  0  0  0  0
 26 82  1  0  0  0  0
 27 83  1  0  0  0  0
 27 84  1  0  0  0  0
 27 85  1  0  0  0  0
 28 86  1  0  0  0  0
 28 87  1  0  0  0  0
 29 88  1  0  0  0  0
 29 89  1  0  0  0  0
 30 90  1  0  0  0  0
 31 91  1  0  0  0  0
 32 92  1  0  0  0  0
 32 93  1  0  0  0  0
 38 94  1  0  0  0  0
 39 95  1  0  0  0  0
 39 96  1  0  0  0  0
 39 97  1  0  0  0  0
 40 98  1  0  0  0  0
 40 99  1  0  0  0  0
 41100  1  0  0  0  0
 41101  1  0  0  0  0
 42102  1  0  0  0  0
 43103  1  0  0  0  0
 44104  1  0  0  0  0
 44105  1  0  0  0  0
 50106  1  0  0  0  0
 51107  1  0  0  0  0
 51108  1  0  0  0  0
 51109  1  0  0  0  0
 52110  1  0  0  0  0
 52111  1  0  0  0  0
 53112  1  0  0  0  0
 53113  1  0  0  0  0
 54114  1  0  0  0  0
 55115  1  0  0  0  0
 56116  1  0  0  0  0
 56117  1  0  0  0  0
 59118  1  0  0  0  0
 62119  1  0  0  0  0
 63120  1  0  0  0  0
 63121  1  0  0  0  0
 63122  1  0  0  0  0
 64123  1  0  0  0  0
 64124  1  0  0  0  0
 65125  1  0  0  0  0
 65126  1  0  0  0  0
 66127  1  0  0  0  0
 67128  1  0  0  0  0
 68129  1  0  0  0  0
 68130  1  0  0  0  0
M  END
