
  xtb     03032214153D
 energy: -339.809507479574 gnorm: 0.000248586619 xtb: 6.4.1 (unknown)
200220  0     0  0            999 V2000
    9.3269   -4.9920   11.2816 C   0  0  0  0  0  0  0  0  0  0  0  0
    8.8793   -4.2214   10.2701 C   0  0  0  0  0  0  0  0  0  0  0  0
    7.6731   -4.7129    9.6874 C   0  0  0  0  0  0  0  0  0  0  0  0
    6.9140   -4.1431    8.6533 C   0  0  0  0  0  0  0  0  0  0  0  0
    7.3520   -2.9345    7.9439 C   0  0  0  0  0  0  0  0  0  0  0  0
    6.4968   -1.8463    7.7803 C   0  0  0  0  0  0  0  0  0  0  0  0
    6.9061   -0.7301    7.0839 C   0  0  0  0  0  0  0  0  0  0  0  0
    8.1806   -0.6506    6.5240 C   0  0  0  0  0  0  0  0  0  0  0  0
    8.6024    0.8417    5.6807 S   0  0  0  0  0  0  0  0  0  0  0  0
    9.7253    0.2821    4.3368 C   0  0  0  0  0  0  0  0  0  0  0  0
    9.6769    1.2926    3.2079 C   0  0  0  0  0  0  0  0  0  0  0  0
    9.0314   -1.7351    6.7147 C   0  0  0  0  0  0  0  0  0  0  0  0
   10.2968   -1.7198    6.2343 F   0  0  0  0  0  0  0  0  0  0  0  0
    8.6301   -2.8639    7.3999 C   0  0  0  0  0  0  0  0  0  0  0  0
    5.7353   -4.7903    8.3164 C   0  0  0  0  0  0  0  0  0  0  0  0
    5.3011   -5.9821    8.9453 C   0  0  0  0  0  0  0  0  0  0  0  0
    6.0516   -6.5446    9.9907 C   0  0  0  0  0  0  0  0  0  0  0  0
    5.5733   -7.7372   10.6978 C   0  0  0  0  0  0  0  0  0  0  0  0
    4.2673   -7.7884   11.1804 C   0  0  0  0  0  0  0  0  0  0  0  0
    3.7869   -8.9069   11.8315 C   0  0  0  0  0  0  0  0  0  0  0  0
    4.5935  -10.0248   12.0130 C   0  0  0  0  0  0  0  0  0  0  0  0
    4.0977  -11.5150   12.8136 S   0  0  0  0  0  0  0  0  0  0  0  0
    2.2726  -11.4486   12.7661 C   0  0  0  0  0  0  0  0  0  0  0  0
    1.7271  -11.5675   11.3556 C   0  0  0  0  0  0  0  0  0  0  0  0
    5.9080   -9.9497   11.5495 C   0  0  0  0  0  0  0  0  0  0  0  0
    6.4024   -8.8364   10.9073 C   0  0  0  0  0  0  0  0  0  0  0  0
    6.7228  -11.0088   11.7233 F   0  0  0  0  0  0  0  0  0  0  0  0
    7.2312   -5.8958   10.3276 C   0  0  0  0  0  0  0  0  0  0  0  0
    8.3236   -6.3645   11.6054 S   0  0  0  0  0  0  0  0  0  0  0  0
    4.1188   -6.4956    8.3569 C   0  0  0  0  0  0  0  0  0  0  0  0
    3.6221   -5.7234    7.3449 C   0  0  0  0  0  0  0  0  0  0  0  0
    4.6360   -4.3141    7.0489 S   0  0  0  0  0  0  0  0  0  0  0  0
    2.4706   -5.9305    6.5380 C   0  0  0  0  0  0  0  0  0  0  0  0
    2.3595   -5.1327    5.0049 S   0  0  0  0  0  0  0  0  0  0  0  0
    0.8615   -5.9047    4.6071 C   0  0  0  0  0  0  0  0  0  0  0  0
    0.4258   -6.7094    5.6669 C   0  0  0  0  0  0  0  0  0  0  0  0
    1.3407   -6.7265    6.7667 C   0  0  0  0  0  0  0  0  0  0  0  0
    0.9960   -7.4411    7.9333 C   0  0  0  0  0  0  0  0  0  0  0  0
   -0.1905   -8.1170    8.0109 C   0  0  0  0  0  0  0  0  0  0  0  0
   -0.5712   -8.8849    9.2389 C   0  0  0  0  0  0  0  0  0  0  0  0
   -1.0948   -8.0738    6.9228 C   0  0  0  0  0  0  0  0  0  0  0  0
   -0.8104   -7.3801    5.7853 C   0  0  0  0  0  0  0  0  0  0  0  0
    0.2429   -5.6552    3.3543 C   0  0  0  0  0  0  0  0  0  0  0  0
    0.2830   -4.0646    2.6698 S   0  0  0  0  0  0  0  0  0  0  0  0
   -0.6531   -4.5337    1.2831 C   0  0  0  0  0  0  0  0  0  0  0  0
   -0.9551   -5.8999    1.3365 C   0  0  0  0  0  0  0  0  0  0  0  0
   -0.4316   -6.5393    2.5044 C   0  0  0  0  0  0  0  0  0  0  0  0
   -0.5500   -7.9371    2.6519 C   0  0  0  0  0  0  0  0  0  0  0  0
   -1.2271   -8.6736    1.7202 C   0  0  0  0  0  0  0  0  0  0  0  0
   -1.3661  -10.1586    1.8455 C   0  0  0  0  0  0  0  0  0  0  0  0
   -1.8042   -8.0217    0.6037 C   0  0  0  0  0  0  0  0  0  0  0  0
   -1.6672   -6.6810    0.4015 C   0  0  0  0  0  0  0  0  0  0  0  0
   -0.9904   -3.5332    0.3362 C   0  0  0  0  0  0  0  0  0  0  0  0
   -0.6578   -2.2061    0.4240 C   0  0  0  0  0  0  0  0  0  0  0  0
   -1.1532   -1.4100   -0.6326 C   0  0  0  0  0  0  0  0  0  0  0  0
   -0.9751   -0.0297   -0.8344 C   0  0  0  0  0  0  0  0  0  0  0  0
   -0.2501    0.8026    0.1324 C   0  0  0  0  0  0  0  0  0  0  0  0
    0.7742    1.6526   -0.2812 C   0  0  0  0  0  0  0  0  0  0  0  0
    1.4401    2.4441    0.6294 C   0  0  0  0  0  0  0  0  0  0  0  0
    1.1179    2.4202    1.9848 C   0  0  0  0  0  0  0  0  0  0  0  0
    2.0748    3.4454    3.0635 S   0  0  0  0  0  0  0  0  0  0  0  0
    0.8461    4.1163    4.2441 C   0  0  0  0  0  0  0  0  0  0  0  0
   -0.2651    4.8686    3.5402 C   0  0  0  0  0  0  0  0  0  0  0  0
    0.1074    1.5521    2.3864 C   0  0  0  0  0  0  0  0  0  0  0  0
   -0.2435    1.4492    3.6882 F   0  0  0  0  0  0  0  0  0  0  0  0
   -0.5781    0.7647    1.4839 C   0  0  0  0  0  0  0  0  0  0  0  0
   -1.5286    0.5069   -1.9863 C   0  0  0  0  0  0  0  0  0  0  0  0
   -2.2465   -0.2645   -2.9335 C   0  0  0  0  0  0  0  0  0  0  0  0
   -2.4118   -1.6486   -2.7407 C   0  0  0  0  0  0  0  0  0  0  0  0
   -3.1097   -2.4683   -3.7374 C   0  0  0  0  0  0  0  0  0  0  0  0
   -4.1228   -3.3549   -3.3768 C   0  0  0  0  0  0  0  0  0  0  0  0
   -4.7732   -4.1025   -4.3338 C   0  0  0  0  0  0  0  0  0  0  0  0
   -4.4558   -3.9971   -5.6888 C   0  0  0  0  0  0  0  0  0  0  0  0
   -5.4356   -4.9608   -6.7981 S   0  0  0  0  0  0  0  0  0  0  0  0
   -4.3474   -5.3444   -8.2184 C   0  0  0  0  0  0  0  0  0  0  0  0
   -3.1183   -6.1264   -7.8010 C   0  0  0  0  0  0  0  0  0  0  0  0
   -3.4485   -3.1013   -6.0340 C   0  0  0  0  0  0  0  0  0  0  0  0
   -2.7738   -2.3625   -5.0835 C   0  0  0  0  0  0  0  0  0  0  0  0
   -3.0870   -2.9094   -7.3242 F   0  0  0  0  0  0  0  0  0  0  0  0
   -1.8749   -2.1793   -1.5804 C   0  0  0  0  0  0  0  0  0  0  0  0
   -1.9339   -3.8583   -1.1098 S   0  0  0  0  0  0  0  0  0  0  0  0
   -2.7674    0.5348   -3.9791 C   0  0  0  0  0  0  0  0  0  0  0  0
   -2.4577    1.8594   -3.8644 C   0  0  0  0  0  0  0  0  0  0  0  0
   -1.5024    2.1928   -2.4348 S   0  0  0  0  0  0  0  0  0  0  0  0
   -2.8166    2.9027   -4.7700 C   0  0  0  0  0  0  0  0  0  0  0  0
   -3.4129    2.7601   -5.9894 C   0  0  0  0  0  0  0  0  0  0  0  0
   -3.6298    3.9864   -6.6635 C   0  0  0  0  0  0  0  0  0  0  0  0
   -4.1934    4.1821   -7.9368 C   0  0  0  0  0  0  0  0  0  0  0  0
   -4.5813    3.0416   -8.7755 C   0  0  0  0  0  0  0  0  0  0  0  0
   -3.6926    1.9921   -9.0088 C   0  0  0  0  0  0  0  0  0  0  0  0
   -4.0598    0.9211   -9.7942 C   0  0  0  0  0  0  0  0  0  0  0  0
   -5.3268    0.8450  -10.3699 C   0  0  0  0  0  0  0  0  0  0  0  0
   -5.7031   -0.6080  -11.3059 S   0  0  0  0  0  0  0  0  0  0  0  0
   -6.6695    0.0167  -12.7301 C   0  0  0  0  0  0  0  0  0  0  0  0
   -5.9045    1.0574  -13.5225 C   0  0  0  0  0  0  0  0  0  0  0  0
   -6.2081    1.8916  -10.1165 C   0  0  0  0  0  0  0  0  0  0  0  0
   -7.4667    1.8712  -10.6079 F   0  0  0  0  0  0  0  0  0  0  0  0
   -5.8460    2.9810   -9.3502 C   0  0  0  0  0  0  0  0  0  0  0  0
   -4.3472    5.4946   -8.3518 C   0  0  0  0  0  0  0  0  0  0  0  0
   -3.9364    6.6059   -7.5743 C   0  0  0  0  0  0  0  0  0  0  0  0
   -3.3336    6.4085   -6.3208 C   0  0  0  0  0  0  0  0  0  0  0  0
   -2.8365    7.5390   -5.5284 C   0  0  0  0  0  0  0  0  0  0  0  0
   -2.0050    8.5017   -6.1013 C   0  0  0  0  0  0  0  0  0  0  0  0
   -1.5229    9.5507   -5.3504 C   0  0  0  0  0  0  0  0  0  0  0  0
   -1.8563    9.6944   -4.0032 C   0  0  0  0  0  0  0  0  0  0  0  0
   -1.2078   11.1049   -3.1642 S   0  0  0  0  0  0  0  0  0  0  0  0
   -1.0215   10.5472   -1.4233 C   0  0  0  0  0  0  0  0  0  0  0  0
    0.0107   11.4214   -0.7389 C   0  0  0  0  0  0  0  0  0  0  0  0
   -2.7044    8.7392   -3.4512 C   0  0  0  0  0  0  0  0  0  0  0  0
   -3.1760    7.6708   -4.1868 C   0  0  0  0  0  0  0  0  0  0  0  0
   -3.1131    8.8328   -2.1654 F   0  0  0  0  0  0  0  0  0  0  0  0
   -3.2119    5.0966   -5.8888 C   0  0  0  0  0  0  0  0  0  0  0  0
   -2.5017    4.5810   -4.3811 S   0  0  0  0  0  0  0  0  0  0  0  0
   -4.2296    7.8383   -8.2094 C   0  0  0  0  0  0  0  0  0  0  0  0
   -4.7886    7.7049   -9.4478 C   0  0  0  0  0  0  0  0  0  0  0  0
   -5.0134    6.0132   -9.8775 S   0  0  0  0  0  0  0  0  0  0  0  0
   -5.2040    8.7158  -10.3612 C   0  0  0  0  0  0  0  0  0  0  0  0
   -6.3767    8.3326  -11.5804 S   0  0  0  0  0  0  0  0  0  0  0  0
   -6.3871    9.9234  -12.1844 C   0  0  0  0  0  0  0  0  0  0  0  0
   -5.5170   10.7449  -11.5013 C   0  0  0  0  0  0  0  0  0  0  0  0
   -4.8203   10.0562  -10.4513 C   0  0  0  0  0  0  0  0  0  0  0  0
   -3.8522   10.7606   -9.7026 C   0  0  0  0  0  0  0  0  0  0  0  0
   -3.6194   12.0854   -9.9432 C   0  0  0  0  0  0  0  0  0  0  0  0
   -2.6034   12.8530   -9.1558 C   0  0  0  0  0  0  0  0  0  0  0  0
   -4.3433   12.7618  -10.9608 C   0  0  0  0  0  0  0  0  0  0  0  0
   -5.2592   12.1181  -11.7306 C   0  0  0  0  0  0  0  0  0  0  0  0
   10.2039   -4.8482   11.8820 H   0  0  0  0  0  0  0  0  0  0  0  0
    9.3666   -3.3193    9.9478 H   0  0  0  0  0  0  0  0  0  0  0  0
    5.5072   -1.8741    8.2093 H   0  0  0  0  0  0  0  0  0  0  0  0
    6.2402    0.1089    6.9562 H   0  0  0  0  0  0  0  0  0  0  0  0
    9.3706   -0.6934    4.0076 H   0  0  0  0  0  0  0  0  0  0  0  0
   10.7319    0.1922    4.7425 H   0  0  0  0  0  0  0  0  0  0  0  0
    9.9914    2.2725    3.5601 H   0  0  0  0  0  0  0  0  0  0  0  0
   10.3429    0.9797    2.4065 H   0  0  0  0  0  0  0  0  0  0  0  0
    8.6670    1.3763    2.8130 H   0  0  0  0  0  0  0  0  0  0  0  0
    9.3209   -3.6878    7.4929 H   0  0  0  0  0  0  0  0  0  0  0  0
    3.6262   -6.9268   11.0661 H   0  0  0  0  0  0  0  0  0  0  0  0
    2.7766   -8.8976   12.2079 H   0  0  0  0  0  0  0  0  0  0  0  0
    1.9730  -12.3045   13.3706 H   0  0  0  0  0  0  0  0  0  0  0  0
    1.9396  -10.5400   13.2666 H   0  0  0  0  0  0  0  0  0  0  0  0
    2.0591  -12.4989   10.9031 H   0  0  0  0  0  0  0  0  0  0  0  0
    0.6389  -11.5584   11.3775 H   0  0  0  0  0  0  0  0  0  0  0  0
    2.0703  -10.7442   10.7323 H   0  0  0  0  0  0  0  0  0  0  0  0
    7.4209   -8.8442   10.5532 H   0  0  0  0  0  0  0  0  0  0  0  0
    3.7050   -7.4457    8.6362 H   0  0  0  0  0  0  0  0  0  0  0  0
    1.6580   -7.4224    8.7836 H   0  0  0  0  0  0  0  0  0  0  0  0
   -1.5418   -8.5560    9.6075 H   0  0  0  0  0  0  0  0  0  0  0  0
    0.1658   -8.7514   10.0267 H   0  0  0  0  0  0  0  0  0  0  0  0
   -0.6461   -9.9477    9.0085 H   0  0  0  0  0  0  0  0  0  0  0  0
   -2.0412   -8.5857    7.0189 H   0  0  0  0  0  0  0  0  0  0  0  0
   -1.5291   -7.3143    4.9835 H   0  0  0  0  0  0  0  0  0  0  0  0
   -0.0811   -8.4178    3.4969 H   0  0  0  0  0  0  0  0  0  0  0  0
   -0.8916  -10.5191    2.7545 H   0  0  0  0  0  0  0  0  0  0  0  0
   -2.4185  -10.4397    1.8638 H   0  0  0  0  0  0  0  0  0  0  0  0
   -0.9061  -10.6539    0.9910 H   0  0  0  0  0  0  0  0  0  0  0  0
   -2.3482   -8.6179   -0.1142 H   0  0  0  0  0  0  0  0  0  0  0  0
   -2.0918   -6.2176   -0.4740 H   0  0  0  0  0  0  0  0  0  0  0  0
   -0.0563   -1.8178    1.2265 H   0  0  0  0  0  0  0  0  0  0  0  0
    1.0554    1.6844   -1.3223 H   0  0  0  0  0  0  0  0  0  0  0  0
    2.2315    3.1016    0.3051 H   0  0  0  0  0  0  0  0  0  0  0  0
    1.4403    4.7844    4.8677 H   0  0  0  0  0  0  0  0  0  0  0  0
    0.4643    3.3043    4.8587 H   0  0  0  0  0  0  0  0  0  0  0  0
   -0.9287    5.3158    4.2777 H   0  0  0  0  0  0  0  0  0  0  0  0
   -0.8508    4.1994    2.9125 H   0  0  0  0  0  0  0  0  0  0  0  0
    0.1447    5.6579    2.9134 H   0  0  0  0  0  0  0  0  0  0  0  0
   -1.3740    0.1324    1.8464 H   0  0  0  0  0  0  0  0  0  0  0  0
   -4.4118   -3.4462   -2.3414 H   0  0  0  0  0  0  0  0  0  0  0  0
   -5.5585   -4.7856   -4.0496 H   0  0  0  0  0  0  0  0  0  0  0  0
   -4.0935   -4.4202   -8.7322 H   0  0  0  0  0  0  0  0  0  0  0  0
   -4.9915   -5.9418   -8.8641 H   0  0  0  0  0  0  0  0  0  0  0  0
   -3.4041   -7.0338   -7.2729 H   0  0  0  0  0  0  0  0  0  0  0  0
   -2.4817   -5.5329   -7.1482 H   0  0  0  0  0  0  0  0  0  0  0  0
   -2.5431   -6.4003   -8.6831 H   0  0  0  0  0  0  0  0  0  0  0  0
   -1.9794   -1.7080   -5.4080 H   0  0  0  0  0  0  0  0  0  0  0  0
   -3.3800    0.1443   -4.7702 H   0  0  0  0  0  0  0  0  0  0  0  0
   -3.6993    1.8083   -6.3966 H   0  0  0  0  0  0  0  0  0  0  0  0
   -2.6969    2.0349   -8.5944 H   0  0  0  0  0  0  0  0  0  0  0  0
   -3.3671    0.1143   -9.9769 H   0  0  0  0  0  0  0  0  0  0  0  0
   -7.6241    0.3961  -12.3728 H   0  0  0  0  0  0  0  0  0  0  0  0
   -6.8437   -0.8807  -13.3240 H   0  0  0  0  0  0  0  0  0  0  0  0
   -4.9420    0.6629  -13.8419 H   0  0  0  0  0  0  0  0  0  0  0  0
   -5.7310    1.9508  -12.9253 H   0  0  0  0  0  0  0  0  0  0  0  0
   -6.4770    1.3402  -14.4035 H   0  0  0  0  0  0  0  0  0  0  0  0
   -6.5744    3.7585   -9.1807 H   0  0  0  0  0  0  0  0  0  0  0  0
   -1.7097    8.4023   -7.1350 H   0  0  0  0  0  0  0  0  0  0  0  0
   -0.8677   10.2854   -5.7927 H   0  0  0  0  0  0  0  0  0  0  0  0
   -1.9899   10.6234   -0.9313 H   0  0  0  0  0  0  0  0  0  0  0  0
   -0.7013    9.5068   -1.4513 H   0  0  0  0  0  0  0  0  0  0  0  0
    0.9702   11.3498   -1.2460 H   0  0  0  0  0  0  0  0  0  0  0  0
    0.1348   11.1013    0.2934 H   0  0  0  0  0  0  0  0  0  0  0  0
   -0.3059   12.4620   -0.7456 H   0  0  0  0  0  0  0  0  0  0  0  0
   -3.8361    6.9661   -3.7059 H   0  0  0  0  0  0  0  0  0  0  0  0
   -4.0836    8.7845   -7.7242 H   0  0  0  0  0  0  0  0  0  0  0  0
   -7.0282   10.1809  -13.0037 H   0  0  0  0  0  0  0  0  0  0  0  0
   -3.2791   10.2449   -8.9492 H   0  0  0  0  0  0  0  0  0  0  0  0
   -1.8242   13.2357   -9.8143 H   0  0  0  0  0  0  0  0  0  0  0  0
   -3.0721   13.7064   -8.6670 H   0  0  0  0  0  0  0  0  0  0  0  0
   -2.1423   12.2275   -8.3957 H   0  0  0  0  0  0  0  0  0  0  0  0
   -4.1382   13.8100  -11.1229 H   0  0  0  0  0  0  0  0  0  0  0  0
   -5.7948   12.6282  -12.5171 H   0  0  0  0  0  0  0  0  0  0  0  0
  1  2  2  0  0  0  0
  2  3  1  0  0  0  0
  3  4  2  0  0  0  0
  4  5  1  0  0  0  0
  5  6  2  0  0  0  0
  6  7  1  0  0  0  0
  7  8  2  0  0  0  0
  8  9  1  0  0  0  0
  9 10  1  0  0  0  0
 10 11  1  0  0  0  0
  8 12  1  0  0  0  0
 12 13  1  0  0  0  0
 12 14  2  0  0  0  0
  4 15  1  0  0  0  0
 15 16  2  0  0  0  0
 16 17  1  0  0  0  0
 17 18  1  0  0  0  0
 18 19  2  0  0  0  0
 19 20  1  0  0  0  0
 20 21  2  0  0  0  0
 21 22  1  0  0  0  0
 22 23  1  0  0  0  0
 23 24  1  0  0  0  0
 21 25  1  0  0  0  0
 25 26  2  0  0  0  0
 25 27  1  0  0  0  0
 17 28  2  0  0  0  0
 28 29  1  0  0  0  0
 16 30  1  0  0  0  0
 30 31  2  0  0  0  0
 31 32  1  0  0  0  0
 31 33  1  0  0  0  0
 33 34  1  0  0  0  0
 34 35  1  0  0  0  0
 35 36  2  0  0  0  0
 36 37  1  0  0  0  0
 37 38  1  0  0  0  0
 38 39  2  0  0  0  0
 39 40  1  0  0  0  0
 39 41  1  0  0  0  0
 41 42  2  0  0  0  0
 35 43  1  0  0  0  0
 43 44  1  0  0  0  0
 44 45  1  0  0  0  0
 45 46  2  0  0  0  0
 46 47  1  0  0  0  0
 47 48  1  0  0  0  0
 48 49  2  0  0  0  0
 49 50  1  0  0  0  0
 49 51  1  0  0  0  0
 51 52  2  0  0  0  0
 45 53  1  0  0  0  0
 53 54  2  0  0  0  0
 54 55  1  0  0  0  0
 55 56  2  0  0  0  0
 56 57  1  0  0  0  0
 57 58  2  0  0  0  0
 58 59  1  0  0  0  0
 59 60  2  0  0  0  0
 60 61  1  0  0  0  0
 61 62  1  0  0  0  0
 62 63  1  0  0  0  0
 60 64  1  0  0  0  0
 64 65  1  0  0  0  0
 64 66  2  0  0  0  0
 56 67  1  0  0  0  0
 67 68  2  0  0  0  0
 68 69  1  0  0  0  0
 69 70  1  0  0  0  0
 70 71  2  0  0  0  0
 71 72  1  0  0  0  0
 72 73  2  0  0  0  0
 73 74  1  0  0  0  0
 74 75  1  0  0  0  0
 75 76  1  0  0  0  0
 73 77  1  0  0  0  0
 77 78  2  0  0  0  0
 77 79  1  0  0  0  0
 69 80  2  0  0  0  0
 80 81  1  0  0  0  0
 68 82  1  0  0  0  0
 82 83  2  0  0  0  0
 83 84  1  0  0  0  0
 83 85  1  0  0  0  0
 85 86  2  0  0  0  0
 86 87  1  0  0  0  0
 87 88  2  0  0  0  0
 88 89  1  0  0  0  0
 89 90  2  0  0  0  0
 90 91  1  0  0  0  0
 91 92  2  0  0  0  0
 92 93  1  0  0  0  0
 93 94  1  0  0  0  0
 94 95  1  0  0  0  0
 92 96  1  0  0  0  0
 96 97  1  0  0  0  0
 96 98  2  0  0  0  0
 88 99  1  0  0  0  0
 99100  2  0  0  0  0
100101  1  0  0  0  0
101102  1  0  0  0  0
102103  2  0  0  0  0
103104  1  0  0  0  0
104105  2  0  0  0  0
105106  1  0  0  0  0
106107  1  0  0  0  0
107108  1  0  0  0  0
105109  1  0  0  0  0
109110  2  0  0  0  0
109111  1  0  0  0  0
101112  2  0  0  0  0
112113  1  0  0  0  0
100114  1  0  0  0  0
114115  2  0  0  0  0
115116  1  0  0  0  0
115117  1  0  0  0  0
117118  1  0  0  0  0
118119  1  0  0  0  0
119120  2  0  0  0  0
120121  1  0  0  0  0
121122  1  0  0  0  0
122123  2  0  0  0  0
123124  1  0  0  0  0
123125  1  0  0  0  0
125126  2  0  0  0  0
 29  1  1  0  0  0  0
 37 33  2  0  0  0  0
 47 43  2  0  0  0  0
 81 53  1  0  0  0  0
113 85  1  0  0  0  0
121117  2  0  0  0  0
 28  3  1  0  0  0  0
 42 36  1  0  0  0  0
 52 46  1  0  0  0  0
 80 55  1  0  0  0  0
112 87  1  0  0  0  0
126120  1  0  0  0  0
 14  5  1  0  0  0  0
 32 15  1  0  0  0  0
 66 57  1  0  0  0  0
 84 67  1  0  0  0  0
 98 89  1  0  0  0  0
116 99  1  0  0  0  0
 26 18  1  0  0  0  0
 78 70  1  0  0  0  0
110102  1  0  0  0  0
  1127  1  0  0  0  0
  2128  1  0  0  0  0
  6129  1  0  0  0  0
  7130  1  0  0  0  0
 10131  1  0  0  0  0
 10132  1  0  0  0  0
 11133  1  0  0  0  0
 11134  1  0  0  0  0
 11135  1  0  0  0  0
 14136  1  0  0  0  0
 19137  1  0  0  0  0
 20138  1  0  0  0  0
 23139  1  0  0  0  0
 23140  1  0  0  0  0
 24141  1  0  0  0  0
 24142  1  0  0  0  0
 24143  1  0  0  0  0
 26144  1  0  0  0  0
 30145  1  0  0  0  0
 38146  1  0  0  0  0
 40147  1  0  0  0  0
 40148  1  0  0  0  0
 40149  1  0  0  0  0
 41150  1  0  0  0  0
 42151  1  0  0  0  0
 48152  1  0  0  0  0
 50153  1  0  0  0  0
 50154  1  0  0  0  0
 50155  1  0  0  0  0
 51156  1  0  0  0  0
 52157  1  0  0  0  0
 54158  1  0  0  0  0
 58159  1  0  0  0  0
 59160  1  0  0  0  0
 62161  1  0  0  0  0
 62162  1  0  0  0  0
 63163  1  0  0  0  0
 63164  1  0  0  0  0
 63165  1  0  0  0  0
 66166  1  0  0  0  0
 71167  1  0  0  0  0
 72168  1  0  0  0  0
 75169  1  0  0  0  0
 75170  1  0  0  0  0
 76171  1  0  0  0  0
 76172  1  0  0  0  0
 76173  1  0  0  0  0
 78174  1  0  0  0  0
 82175  1  0  0  0  0
 86176  1  0  0  0  0
 90177  1  0  0  0  0
 91178  1  0  0  0  0
 94179  1  0  0  0  0
 94180  1  0  0  0  0
 95181  1  0  0  0  0
 95182  1  0  0  0  0
 95183  1  0  0  0  0
 98184  1  0  0  0  0
103185  1  0  0  0  0
104186  1  0  0  0  0
107187  1  0  0  0  0
107188  1  0  0  0  0
108189  1  0  0  0  0
108190  1  0  0  0  0
108191  1  0  0  0  0
110192  1  0  0  0  0
114193  1  0  0  0  0
119194  1  0  0  0  0
122195  1  0  0  0  0
124196  1  0  0  0  0
124197  1  0  0  0  0
124198  1  0  0  0  0
125199  1  0  0  0  0
126200  1  0  0  0  0
M  END
