
  xtb     03022216333D
 energy: -271.174163772300 gnorm: 0.000471181100 xtb: 6.4.1 (unknown)
153169  0     0  0            999 V2000
    6.3174   -2.3908    5.8662 C   0  0  0  0  0  0  0  0  0  0  0  0
    5.1268   -3.3501    6.6252 S   0  0  0  0  0  0  0  0  0  0  0  0
    3.8331   -2.5377    5.8043 C   0  0  0  0  0  0  0  0  0  0  0  0
    4.3381   -1.5211    4.9884 C   0  0  0  0  0  0  0  0  0  0  0  0
    5.7775   -1.4549    5.0113 C   0  0  0  0  0  0  0  0  0  0  0  0
    6.4693   -0.5151    4.1999 C   0  0  0  0  0  0  0  0  0  0  0  0
    5.7157    0.3298    3.4462 C   0  0  0  0  0  0  0  0  0  0  0  0
    6.1123    1.3843    2.4861 C   0  0  0  0  0  0  0  0  0  0  0  0
    7.2124    1.7164    2.1223 O   0  0  0  0  0  0  0  0  0  0  0  0
    4.9237    1.9430    2.0316 N   0  0  0  0  0  0  0  0  0  0  0  0
    4.8693    3.0332    1.0815 C   0  0  0  0  0  0  0  0  0  0  0  0
    4.7993    4.3817    1.7889 C   0  0  0  0  0  0  0  0  0  0  0  0
    3.7976    1.3809    2.6084 C   0  0  0  0  0  0  0  0  0  0  0  0
    2.6594    1.7329    2.4046 O   0  0  0  0  0  0  0  0  0  0  0  0
    4.2920    0.3101    3.4884 C   0  0  0  0  0  0  0  0  0  0  0  0
    3.5942   -0.5924    4.2314 C   0  0  0  0  0  0  0  0  0  0  0  0
    2.4749   -2.9269    5.9074 C   0  0  0  0  0  0  0  0  0  0  0  0
    1.9534   -3.7432    6.8531 C   0  0  0  0  0  0  0  0  0  0  0  0
    0.5899   -4.1500    6.8726 C   0  0  0  0  0  0  0  0  0  0  0  0
   -0.2391   -4.2860    8.3922 S   0  0  0  0  0  0  0  0  0  0  0  0
   -1.7660   -4.5714    7.6344 C   0  0  0  0  0  0  0  0  0  0  0  0
   -1.6064   -4.7248    6.2581 C   0  0  0  0  0  0  0  0  0  0  0  0
   -0.2786   -4.4099    5.8069 C   0  0  0  0  0  0  0  0  0  0  0  0
    0.0028   -4.3827    4.4198 C   0  0  0  0  0  0  0  0  0  0  0  0
   -1.0253   -4.6381    3.5617 C   0  0  0  0  0  0  0  0  0  0  0  0
   -1.0639   -4.6229    2.0859 C   0  0  0  0  0  0  0  0  0  0  0  0
   -0.2068   -4.2912    1.3016 O   0  0  0  0  0  0  0  0  0  0  0  0
   -2.3312   -5.0663    1.7373 N   0  0  0  0  0  0  0  0  0  0  0  0
   -2.7552   -5.2618    0.3657 C   0  0  0  0  0  0  0  0  0  0  0  0
   -3.4115   -4.0188   -0.2214 C   0  0  0  0  0  0  0  0  0  0  0  0
   -3.1370   -5.3443    2.8312 C   0  0  0  0  0  0  0  0  0  0  0  0
   -4.2747   -5.7429    2.7715 O   0  0  0  0  0  0  0  0  0  0  0  0
   -2.3090   -5.0496    4.0182 C   0  0  0  0  0  0  0  0  0  0  0  0
   -2.6072   -5.1339    5.3421 C   0  0  0  0  0  0  0  0  0  0  0  0
   -3.0101   -4.3937    8.3393 C   0  0  0  0  0  0  0  0  0  0  0  0
   -4.0281   -3.6649    7.8372 C   0  0  0  0  0  0  0  0  0  0  0  0
   -3.9554   -2.9313    6.5931 C   0  0  0  0  0  0  0  0  0  0  0  0
   -2.5921   -1.9393    6.2038 S   0  0  0  0  0  0  0  0  0  0  0  0
   -3.0217   -1.8268    4.5181 C   0  0  0  0  0  0  0  0  0  0  0  0
   -4.2754   -2.4240    4.3028 C   0  0  0  0  0  0  0  0  0  0  0  0
   -4.8007   -3.0441    5.4940 C   0  0  0  0  0  0  0  0  0  0  0  0
   -5.9903   -3.8147    5.4526 C   0  0  0  0  0  0  0  0  0  0  0  0
   -6.6017   -3.9607    4.2478 C   0  0  0  0  0  0  0  0  0  0  0  0
   -7.7953   -4.7439    3.8594 C   0  0  0  0  0  0  0  0  0  0  0  0
   -8.5370   -5.4021    4.5457 O   0  0  0  0  0  0  0  0  0  0  0  0
   -7.9123   -4.5842    2.4874 N   0  0  0  0  0  0  0  0  0  0  0  0
   -8.9534   -5.2083    1.7017 C   0  0  0  0  0  0  0  0  0  0  0  0
  -10.1594   -4.2869    1.5530 C   0  0  0  0  0  0  0  0  0  0  0  0
   -6.9320   -3.7716    1.9403 C   0  0  0  0  0  0  0  0  0  0  0  0
   -6.8191   -3.5104    0.7669 O   0  0  0  0  0  0  0  0  0  0  0  0
   -6.0880   -3.3504    3.0738 C   0  0  0  0  0  0  0  0  0  0  0  0
   -4.9659   -2.5777    3.0826 C   0  0  0  0  0  0  0  0  0  0  0  0
   -1.9933   -1.3976    3.6549 C   0  0  0  0  0  0  0  0  0  0  0  0
   -1.9880   -1.2966    2.2939 C   0  0  0  0  0  0  0  0  0  0  0  0
   -0.8095   -1.1761    1.5356 C   0  0  0  0  0  0  0  0  0  0  0  0
    0.7647   -1.3128    2.2565 S   0  0  0  0  0  0  0  0  0  0  0  0
    1.5913   -1.1761    0.7424 C   0  0  0  0  0  0  0  0  0  0  0  0
    0.6654   -1.1272   -0.3067 C   0  0  0  0  0  0  0  0  0  0  0  0
   -0.6929   -1.0467    0.1409 C   0  0  0  0  0  0  0  0  0  0  0  0
   -1.7294   -0.7942   -0.7846 C   0  0  0  0  0  0  0  0  0  0  0  0
   -1.3857   -0.6693   -2.1002 C   0  0  0  0  0  0  0  0  0  0  0  0
   -2.2021   -0.3243   -3.2795 C   0  0  0  0  0  0  0  0  0  0  0  0
   -3.3732   -0.0466   -3.3538 O   0  0  0  0  0  0  0  0  0  0  0  0
   -1.3291   -0.3653   -4.3635 N   0  0  0  0  0  0  0  0  0  0  0  0
   -1.7300   -0.0558   -5.7190 C   0  0  0  0  0  0  0  0  0  0  0  0
   -1.2050    1.3040   -6.1667 C   0  0  0  0  0  0  0  0  0  0  0  0
   -0.0335   -0.7017   -4.0113 C   0  0  0  0  0  0  0  0  0  0  0  0
    0.8985   -0.7705   -4.7791 O   0  0  0  0  0  0  0  0  0  0  0  0
   -0.0588   -0.8997   -2.5513 C   0  0  0  0  0  0  0  0  0  0  0  0
    0.9580   -1.1689   -1.6877 C   0  0  0  0  0  0  0  0  0  0  0  0
    3.0084   -1.0532    0.7198 C   0  0  0  0  0  0  0  0  0  0  0  0
    3.7776   -0.3707   -0.1716 C   0  0  0  0  0  0  0  0  0  0  0  0
    3.3568    0.4747   -1.2377 C   0  0  0  0  0  0  0  0  0  0  0  0
    4.2442    0.4096   -2.7340 S   0  0  0  0  0  0  0  0  0  0  0  0
    3.0433    1.3076   -3.5974 C   0  0  0  0  0  0  0  0  0  0  0  0
    2.0092    1.7022   -2.7401 C   0  0  0  0  0  0  0  0  0  0  0  0
    2.2124    1.2673   -1.3940 C   0  0  0  0  0  0  0  0  0  0  0  0
    1.2862    1.6409   -0.3986 C   0  0  0  0  0  0  0  0  0  0  0  0
    0.1263    2.2798   -0.7407 C   0  0  0  0  0  0  0  0  0  0  0  0
   -0.8853    2.6544    0.2943 C   0  0  0  0  0  0  0  0  0  0  0  0
   -0.1356    2.5676   -2.1019 C   0  0  0  0  0  0  0  0  0  0  0  0
    0.7847    2.3185   -3.0760 C   0  0  0  0  0  0  0  0  0  0  0  0
    3.1293    1.4369   -5.0097 C   0  0  0  0  0  0  0  0  0  0  0  0
    3.7196    0.1172   -5.9556 S   0  0  0  0  0  0  0  0  0  0  0  0
    3.4333    0.9301   -7.4514 C   0  0  0  0  0  0  0  0  0  0  0  0
    2.8746    2.1896   -7.2329 C   0  0  0  0  0  0  0  0  0  0  0  0
    2.7361    2.4966   -5.8310 C   0  0  0  0  0  0  0  0  0  0  0  0
    2.3193    3.7830   -5.4152 C   0  0  0  0  0  0  0  0  0  0  0  0
    1.9513    4.6690   -6.3819 C   0  0  0  0  0  0  0  0  0  0  0  0
    1.4570    6.0542   -6.2700 C   0  0  0  0  0  0  0  0  0  0  0  0
    1.2819    6.7331   -5.2870 O   0  0  0  0  0  0  0  0  0  0  0  0
    1.1924    6.4602   -7.5713 N   0  0  0  0  0  0  0  0  0  0  0  0
    0.7113    7.7820   -7.9072 C   0  0  0  0  0  0  0  0  0  0  0  0
    1.8665    8.7602   -8.0906 C   0  0  0  0  0  0  0  0  0  0  0  0
    1.4694    5.4870   -8.5219 C   0  0  0  0  0  0  0  0  0  0  0  0
    1.3139    5.6214   -9.7114 O   0  0  0  0  0  0  0  0  0  0  0  0
    1.9671    4.3233   -7.7626 C   0  0  0  0  0  0  0  0  0  0  0  0
    2.4221    3.1180   -8.2024 C   0  0  0  0  0  0  0  0  0  0  0  0
    3.8014    0.2551   -8.6673 C   0  0  0  0  0  0  0  0  0  0  0  0
    4.1248    0.8248   -9.8270 C   0  0  0  0  0  0  0  0  0  0  0  0
    7.3533   -2.5610    6.0821 H   0  0  0  0  0  0  0  0  0  0  0  0
    7.5474   -0.4857    4.1887 H   0  0  0  0  0  0  0  0  0  0  0  0
    5.7698    2.9697    0.4658 H   0  0  0  0  0  0  0  0  0  0  0  0
    3.9819    2.8851    0.4605 H   0  0  0  0  0  0  0  0  0  0  0  0
    5.6776    4.5259    2.4140 H   0  0  0  0  0  0  0  0  0  0  0  0
    3.9085    4.4309    2.4108 H   0  0  0  0  0  0  0  0  0  0  0  0
    4.7571    5.1802    1.0538 H   0  0  0  0  0  0  0  0  0  0  0  0
    2.5166   -0.5880    4.2413 H   0  0  0  0  0  0  0  0  0  0  0  0
    1.8163   -2.4967    5.1661 H   0  0  0  0  0  0  0  0  0  0  0  0
    2.5711   -4.0577    7.6849 H   0  0  0  0  0  0  0  0  0  0  0  0
    0.9930   -4.1712    4.0510 H   0  0  0  0  0  0  0  0  0  0  0  0
   -3.4587   -6.0978    0.3612 H   0  0  0  0  0  0  0  0  0  0  0  0
   -1.8623   -5.5223   -0.2091 H   0  0  0  0  0  0  0  0  0  0  0  0
   -3.6503   -4.1950   -1.2665 H   0  0  0  0  0  0  0  0  0  0  0  0
   -2.7284   -3.1748   -0.1622 H   0  0  0  0  0  0  0  0  0  0  0  0
   -4.3352   -3.7860    0.3024 H   0  0  0  0  0  0  0  0  0  0  0  0
   -3.5605   -5.4981    5.6894 H   0  0  0  0  0  0  0  0  0  0  0  0
   -3.0963   -4.8300    9.3244 H   0  0  0  0  0  0  0  0  0  0  0  0
   -4.9676   -3.6318    8.3729 H   0  0  0  0  0  0  0  0  0  0  0  0
   -6.3747   -4.2834    6.3447 H   0  0  0  0  0  0  0  0  0  0  0  0
   -9.2385   -6.1305    2.2136 H   0  0  0  0  0  0  0  0  0  0  0  0
   -8.5301   -5.4409    0.7215 H   0  0  0  0  0  0  0  0  0  0  0  0
  -10.9295   -4.7801    0.9669 H   0  0  0  0  0  0  0  0  0  0  0  0
  -10.5670   -4.0407    2.5310 H   0  0  0  0  0  0  0  0  0  0  0  0
   -9.8690   -3.3683    1.0482 H   0  0  0  0  0  0  0  0  0  0  0  0
   -4.6213   -2.1191    2.1725 H   0  0  0  0  0  0  0  0  0  0  0  0
   -1.0473   -1.2170    4.1542 H   0  0  0  0  0  0  0  0  0  0  0  0
   -2.9031   -1.3584    1.7281 H   0  0  0  0  0  0  0  0  0  0  0  0
   -2.7528   -0.6676   -0.4667 H   0  0  0  0  0  0  0  0  0  0  0  0
   -2.8224   -0.0721   -5.7341 H   0  0  0  0  0  0  0  0  0  0  0  0
   -1.3399   -0.8385   -6.3759 H   0  0  0  0  0  0  0  0  0  0  0  0
   -1.5378    1.5108   -7.1801 H   0  0  0  0  0  0  0  0  0  0  0  0
   -1.5753    2.0883   -5.5101 H   0  0  0  0  0  0  0  0  0  0  0  0
   -0.1173    1.3079   -6.1511 H   0  0  0  0  0  0  0  0  0  0  0  0
    1.9482   -1.4033   -2.0402 H   0  0  0  0  0  0  0  0  0  0  0  0
    3.5232   -1.5519    1.5320 H   0  0  0  0  0  0  0  0  0  0  0  0
    4.8494   -0.5231   -0.1073 H   0  0  0  0  0  0  0  0  0  0  0  0
    1.5066    1.4297    0.6351 H   0  0  0  0  0  0  0  0  0  0  0  0
   -1.8212    2.1263    0.1119 H   0  0  0  0  0  0  0  0  0  0  0  0
   -1.0936    3.7225    0.2511 H   0  0  0  0  0  0  0  0  0  0  0  0
   -0.5273    2.4054    1.2897 H   0  0  0  0  0  0  0  0  0  0  0  0
   -1.0828    3.0181   -2.3602 H   0  0  0  0  0  0  0  0  0  0  0  0
    0.5779    2.5708   -4.1031 H   0  0  0  0  0  0  0  0  0  0  0  0
    2.3107    4.0545   -4.3716 H   0  0  0  0  0  0  0  0  0  0  0  0
    0.0610    8.1118   -7.0931 H   0  0  0  0  0  0  0  0  0  0  0  0
    0.1367    7.6932   -8.8324 H   0  0  0  0  0  0  0  0  0  0  0  0
    2.4434    8.8342   -7.1715 H   0  0  0  0  0  0  0  0  0  0  0  0
    2.5191    8.4240   -8.8931 H   0  0  0  0  0  0  0  0  0  0  0  0
    1.4800    9.7439   -8.3420 H   0  0  0  0  0  0  0  0  0  0  0  0
    2.4203    2.8741   -9.2515 H   0  0  0  0  0  0  0  0  0  0  0  0
    3.8546   -0.8232   -8.5771 H   0  0  0  0  0  0  0  0  0  0  0  0
    4.1627    1.8906   -9.9627 H   0  0  0  0  0  0  0  0  0  0  0  0
    4.3922    0.2246  -10.6791 H   0  0  0  0  0  0  0  0  0  0  0  0
  1  2  1  0  0  0  0
  2  3  1  0  0  0  0
  3  4  2  0  0  0  0
  4  5  1  0  0  0  0
  5  6  1  0  0  0  0
  6  7  2  0  0  0  0
  7  8  1  0  0  0  0
  8  9  2  0  0  0  0
  8 10  1  0  0  0  0
 10 11  1  0  0  0  0
 11 12  1  0  0  0  0
 10 13  1  0  0  0  0
 13 14  2  0  0  0  0
 13 15  1  0  0  0  0
 15 16  2  0  0  0  0
  3 17  1  0  0  0  0
 17 18  2  0  0  0  0
 18 19  1  0  0  0  0
 19 20  1  0  0  0  0
 20 21  1  0  0  0  0
 21 22  2  0  0  0  0
 22 23  1  0  0  0  0
 23 24  1  0  0  0  0
 24 25  2  0  0  0  0
 25 26  1  0  0  0  0
 26 27  2  0  0  0  0
 26 28  1  0  0  0  0
 28 29  1  0  0  0  0
 29 30  1  0  0  0  0
 28 31  1  0  0  0  0
 31 32  2  0  0  0  0
 31 33  1  0  0  0  0
 33 34  2  0  0  0  0
 21 35  1  0  0  0  0
 35 36  2  0  0  0  0
 36 37  1  0  0  0  0
 37 38  1  0  0  0  0
 38 39  1  0  0  0  0
 39 40  2  0  0  0  0
 40 41  1  0  0  0  0
 41 42  1  0  0  0  0
 42 43  2  0  0  0  0
 43 44  1  0  0  0  0
 44 45  2  0  0  0  0
 44 46  1  0  0  0  0
 46 47  1  0  0  0  0
 47 48  1  0  0  0  0
 46 49  1  0  0  0  0
 49 50  2  0  0  0  0
 49 51  1  0  0  0  0
 51 52  2  0  0  0  0
 39 53  1  0  0  0  0
 53 54  2  0  0  0  0
 54 55  1  0  0  0  0
 55 56  1  0  0  0  0
 56 57  1  0  0  0  0
 57 58  2  0  0  0  0
 58 59  1  0  0  0  0
 59 60  1  0  0  0  0
 60 61  2  0  0  0  0
 61 62  1  0  0  0  0
 62 63  2  0  0  0  0
 62 64  1  0  0  0  0
 64 65  1  0  0  0  0
 65 66  1  0  0  0  0
 64 67  1  0  0  0  0
 67 68  2  0  0  0  0
 67 69  1  0  0  0  0
 69 70  2  0  0  0  0
 57 71  1  0  0  0  0
 71 72  2  0  0  0  0
 72 73  1  0  0  0  0
 73 74  1  0  0  0  0
 74 75  1  0  0  0  0
 75 76  2  0  0  0  0
 76 77  1  0  0  0  0
 77 78  1  0  0  0  0
 78 79  2  0  0  0  0
 79 80  1  0  0  0  0
 79 81  1  0  0  0  0
 81 82  2  0  0  0  0
 75 83  1  0  0  0  0
 83 84  1  0  0  0  0
 84 85  1  0  0  0  0
 85 86  2  0  0  0  0
 86 87  1  0  0  0  0
 87 88  1  0  0  0  0
 88 89  2  0  0  0  0
 89 90  1  0  0  0  0
 90 91  2  0  0  0  0
 90 92  1  0  0  0  0
 92 93  1  0  0  0  0
 93 94  1  0  0  0  0
 92 95  1  0  0  0  0
 95 96  2  0  0  0  0
 95 97  1  0  0  0  0
 97 98  2  0  0  0  0
 85 99  1  0  0  0  0
 99100  2  0  0  0  0
  5  1  2  0  0  0  0
 15  7  1  0  0  0  0
 23 19  2  0  0  0  0
 33 25  1  0  0  0  0
 41 37  2  0  0  0  0
 51 43  1  0  0  0  0
 59 55  2  0  0  0  0
 69 61  1  0  0  0  0
 77 73  2  0  0  0  0
 87 83  2  0  0  0  0
 97 89  1  0  0  0  0
 16  4  1  0  0  0  0
 34 22  1  0  0  0  0
 52 40  1  0  0  0  0
 70 58  1  0  0  0  0
 82 76  1  0  0  0  0
 98 86  1  0  0  0  0
  1101  1  0  0  0  0
  6102  1  0  0  0  0
 11103  1  0  0  0  0
 11104  1  0  0  0  0
 12105  1  0  0  0  0
 12106  1  0  0  0  0
 12107  1  0  0  0  0
 16108  1  0  0  0  0
 17109  1  0  0  0  0
 18110  1  0  0  0  0
 24111  1  0  0  0  0
 29112  1  0  0  0  0
 29113  1  0  0  0  0
 30114  1  0  0  0  0
 30115  1  0  0  0  0
 30116  1  0  0  0  0
 34117  1  0  0  0  0
 35118  1  0  0  0  0
 36119  1  0  0  0  0
 42120  1  0  0  0  0
 47121  1  0  0  0  0
 47122  1  0  0  0  0
 48123  1  0  0  0  0
 48124  1  0  0  0  0
 48125  1  0  0  0  0
 52126  1  0  0  0  0
 53127  1  0  0  0  0
 54128  1  0  0  0  0
 60129  1  0  0  0  0
 65130  1  0  0  0  0
 65131  1  0  0  0  0
 66132  1  0  0  0  0
 66133  1  0  0  0  0
 66134  1  0  0  0  0
 70135  1  0  0  0  0
 71136  1  0  0  0  0
 72137  1  0  0  0  0
 78138  1  0  0  0  0
 80139  1  0  0  0  0
 80140  1  0  0  0  0
 80141  1  0  0  0  0
 81142  1  0  0  0  0
 82143  1  0  0  0  0
 88144  1  0  0  0  0
 93145  1  0  0  0  0
 93146  1  0  0  0  0
 94147  1  0  0  0  0
 94148  1  0  0  0  0
 94149  1  0  0  0  0
 98150  1  0  0  0  0
 99151  1  0  0  0  0
100152  1  0  0  0  0
100153  1  0  0  0  0
M  END
