130

C          8.18020       -5.13310        5.66190
S          7.37420       -4.77850        4.19930
C          6.08550       -3.94740        5.01660
C          6.27920       -3.98970        6.39700
C          7.49680       -4.65890        6.75870
C          7.85200       -4.78500        8.12390
C          7.01980       -4.30890        9.09270
C          7.35750       -4.41940       10.54780
C          5.78510       -3.70800        8.72560
C          5.41460       -3.55070        7.42560
C          5.03090       -3.35810        4.26450
S          4.42530       -4.15910        2.85590
C          3.24200       -2.93320        2.52700
C          3.32580       -1.92240        3.49580
C          4.35720       -2.15190        4.46250
C          4.65180       -1.16390        5.42720
C          3.89560       -0.02970        5.50580
C          4.18550        1.04020        6.51240
C          2.80420        0.13800        4.61890
C          2.52880       -0.76430        3.63680
C          2.39670       -3.01740        1.38220
S          1.67070       -1.56160        0.74140
C          0.87240       -2.44560       -0.52290
C          1.14780       -3.78810       -0.43870
C          2.02870       -4.11210        0.61900
C          2.46920       -5.52800        0.83240
C          3.77250       -5.79720        0.07020
C          1.34680       -6.46940        0.38430
C          0.96600       -6.23050       -1.07080
C          0.45620       -4.79980       -1.31140
C         -1.02200       -4.72630       -1.04170
C         -1.93380       -4.50310       -1.96790
C         -0.00010       -1.73020       -1.42240
S         -1.32580       -0.85730       -0.70300
C         -1.86740       -0.30730       -2.26330
C         -1.04930       -0.77580       -3.26110
C          0.03000       -1.56780       -2.78390
C          1.10650       -2.08980       -3.69900
C          2.50690       -1.94640       -3.10050
C          1.04460       -1.35450       -5.04040
C         -0.37410       -1.35720       -5.58710
C         -1.27370       -0.46960       -4.71730
C         -2.70900       -0.65140       -5.13890
C         -3.45710       -1.67960       -4.78670
C         -2.96570        0.61900       -2.34980
S         -2.80250        2.01320       -3.38580
C         -4.30550        2.67290       -2.80710
C         -4.88290        1.84890       -1.87730
C         -4.13520        0.66850       -1.63030
C         -4.62330       -0.42220       -0.71480
C         -4.60100       -1.78630       -1.40730
C         -6.05020       -0.12720       -0.24230
C         -6.21660        1.33440        0.14130
C         -6.12510        2.21560       -1.11110
C         -6.09720        3.65680       -0.69210
C         -7.09480        4.50510       -0.85030
C         -4.82220        3.89180       -3.37780
S         -6.42030        3.88080       -4.07830
C         -6.23510        5.50550       -4.59710
C         -5.02460        6.02480       -4.26380
C         -4.20710        5.10330       -3.55330
C         -2.83030        5.44780       -3.05250
C         -2.67330        5.13530       -1.56240
C         -2.51850        6.93030       -3.29090
C         -3.03010        7.41500       -4.64050
C         -4.56370        7.40450       -4.64080
C         -5.09980        7.79660       -5.98450
C         -5.83310        8.86890       -6.21470
H          9.10620       -5.67200        5.64200
H          8.78320       -5.27150        8.37580
H          8.31230       -4.91900       10.69010
H          6.58660       -4.98160       11.07370
H          7.41140       -3.42870       10.99870
H          5.12560       -3.37740        9.51520
H          4.46150       -3.11390        7.17000
H          5.49270       -1.31210        6.08770
H          4.39890        1.98330        6.01000
H          3.32130        1.19680        7.15750
H          5.03890        0.77270        7.13030
H          2.18810        1.01940        4.72280
H          1.69610       -0.59790        2.97350
H          2.65690       -5.69780        1.89840
H          3.66350       -5.55500       -0.98360
H          4.05160       -6.84390        0.16540
H          4.58020       -5.18950        0.46860
H          1.67010       -7.50430        0.51260
H          0.47460       -6.31020        1.02210
H          1.83090       -6.42060       -1.70700
H          0.18370       -6.93280       -1.36800
H          0.61990       -4.54420       -2.36300
H         -1.31350       -4.88250       -0.01180
H         -2.98600       -4.47760       -1.74070
H         -1.66370       -4.33940       -2.99910
H          0.91750       -3.15490       -3.89280
H          3.25390       -2.18720       -3.85430
H          2.65060       -2.61080       -2.25440
H          2.67050       -0.92410       -2.76670
H          1.72160       -1.84050       -5.74600
H          1.38190       -0.32420       -4.90510
H         -0.39210       -0.98900       -6.61450
H         -0.76530       -2.37720       -5.58990
H         -0.98660        0.57550       -4.88840
H         -3.10000        0.09970       -5.81130
H         -3.09250       -2.44560       -4.12250
H         -4.46830       -1.79430       -5.13780
H         -3.96150       -0.46200        0.15960
H         -3.58860       -2.08560       -1.65670
H         -5.03110       -2.53870       -0.74920
H         -5.18530       -1.74900       -2.32430
H         -6.75150       -0.36570       -1.04580
H         -6.28400       -0.77070        0.60790
H         -5.43120        1.62030        0.84510
H         -7.18100        1.49830        0.62540
H         -7.00670        2.03800       -1.73860
H         -5.18890        3.96490       -0.19120
H         -7.03840        5.52350       -0.50490
H         -8.00880        4.22020       -1.34520
H         -7.03280        5.98540       -5.12850
H         -2.10770        4.83930       -3.61150
H         -1.69160        5.45510       -1.21940
H         -2.77350        4.07160       -1.36910
H         -3.43140        5.66490       -0.98880
H         -2.98780        7.52530       -2.50320
H         -1.43940        7.08120       -3.22180
H         -2.67350        8.42730       -4.84050
H         -2.66110        6.76080       -5.43380
H         -4.92130        8.12100       -3.89050
H         -4.83480        7.12810       -6.79350
H         -6.18900        9.11760       -7.20020
H         -6.11090        9.54690       -5.42390
