228

C          3.02160       -9.47800       11.43750
C          3.53590       -8.79230       10.39640
C          2.56260       -8.48950        9.40020
C          2.72880       -7.76370        8.21110
C          3.99070       -7.12450        7.87380
S          4.75150       -7.37310        6.33090
C          6.05340       -6.29800        6.71170
C          7.11510       -5.99640        5.71270
C          6.60230       -5.01960        4.65190
C          5.88980       -5.77960        7.96150
Cl         6.97310       -4.66430        8.68830
C          4.72400       -6.24920        8.62530
Cl         4.25950       -5.68850       10.17980
C          1.62080       -7.65140        7.38140
C          0.35300       -8.19000        7.70680
C          0.17930       -8.89310        8.91030
C         -1.11480       -9.44080        9.28420
S         -2.52860       -8.43040        9.36590
C         -3.53590       -9.74410        9.86900
C         -4.97520       -9.53680       10.18830
C         -5.15490       -9.10060       11.64440
C         -2.80440      -10.88960        9.96760
C         -1.43320      -10.72350        9.63370
Cl        -0.33260      -12.03580        9.59510
Cl        -3.45950      -12.40430       10.43680
C          1.29460       -9.02780        9.72920
S          1.33490       -9.82000       11.27820
C         -0.60570       -7.93270        6.69400
C         -0.10890       -7.21840        5.64590
S          1.58470       -6.81740        5.85470
C         -0.78630       -6.79960        4.46370
C         -0.24270       -6.16290        3.38840
C         -1.17570       -5.89130        2.35930
C         -0.94360       -5.24390        1.13300
C          0.33140       -4.61260        0.83600
S          1.03220       -3.50830        1.98870
C          2.32940       -3.09030        0.92510
C          3.39610       -2.13900        1.34190
C          4.50310       -2.85990        2.11530
C          2.22460       -3.78540       -0.24240
Cl         3.32480       -3.62390       -1.54930
C          1.09390       -4.64550       -0.29980
Cl         0.80350       -5.67150       -1.64130
C         -2.02600       -5.14440        0.26680
C         -3.32920       -5.59370        0.59880
C         -3.56950       -6.18380        1.85150
C         -4.91690       -6.54120        2.26220
S         -5.29550       -8.11960        2.88340
C         -6.96270       -7.71680        3.11150
C         -7.94010       -8.72420        3.60760
C         -8.50680       -9.55310        2.45230
C         -7.19770       -6.43190        2.72140
C         -6.04070       -5.75990        2.24560
Cl        -6.06710       -4.10370        1.78900
Cl        -8.73500       -5.67280        2.79830
C         -2.47190       -6.36000        2.68490
S         -2.50180       -7.09440        4.26390
C         -4.26480       -5.32270       -0.43330
C         -3.72060       -4.66260       -1.49100
S         -2.00530       -4.38100       -1.29070
C         -4.34710       -4.06170       -2.62750
C         -5.57880       -3.48000       -2.69220
C         -5.75490       -2.66340       -3.83880
C         -6.78670       -1.73520       -4.10420
C         -7.95310       -1.61020       -3.25040
S         -7.84260       -1.58660       -1.51350
C         -9.55200       -1.40040       -1.32000
C        -10.16410       -1.35920        0.03640
C         -9.93040       -2.66880        0.79080
C        -10.15990       -1.35550       -2.53860
Cl       -11.85330       -1.18610       -2.76290
C         -9.25940       -1.46310       -3.63260
Cl        -9.79810       -1.49410       -5.25880
C         -6.57660       -0.85500       -5.16060
C         -5.46950       -0.96650       -6.03640
C         -4.48810       -1.95190       -5.83250
C         -3.29410       -1.97230       -6.65850
S         -1.71130       -1.79560       -5.95690
C         -0.93960       -1.78610       -7.50630
C          0.54110       -1.68230       -7.61390
C          1.22080       -2.96560       -7.13380
C         -1.86500       -1.92500       -8.49710
C         -3.20150       -2.01560       -8.02110
Cl        -4.55140       -2.20760       -9.06200
Cl        -1.48400       -1.97350      -10.17040
C         -4.62440       -2.72410       -4.69150
S         -3.38350       -3.75820       -4.05420
C         -5.29820        0.18130       -6.83190
C         -6.13210        1.21550       -6.49830
S         -7.39080        0.68020       -5.38970
C         -5.74270        2.57390       -6.65770
S         -4.04290        2.78480       -6.95940
C         -4.03420        4.40350       -6.34590
C         -5.33930        4.83420       -6.09650
C         -6.30880        3.78480       -6.25170
C         -7.66150        4.03560       -5.95020
C         -8.05050        5.27510       -5.52030
C         -9.48040        5.57850       -5.20170
C         -7.08490        6.30270       -5.37020
C         -5.76500        6.09920       -5.64180
C         -2.76150        4.86600       -5.90460
C         -1.77960        3.99240       -5.51610
C         -0.65380        4.60660       -4.94050
C          0.46380        3.96450       -4.38260
C          0.53700        2.51840       -4.24180
S         -0.73900        1.63700       -3.44340
C          0.13370        0.14440       -3.50890
C         -0.39050       -1.09080       -2.86480
C          0.02890       -1.15310       -1.39410
C          1.33290        0.33020       -4.12860
Cl         2.48230       -0.92150       -4.36490
C          1.56330        1.66790       -4.55040
Cl         2.96460        2.12000       -5.42830
C          1.45840        4.79040       -3.88000
C          1.38970        6.20610       -3.92010
C          0.24660        6.84060       -4.44680
C          0.12820        8.28980       -4.45880
S          1.34910        9.28410       -5.19870
C          0.49400       10.74400       -4.83690
C          1.00780       12.07050       -5.27570
C          0.55300       12.38750       -6.70240
C         -0.66920       10.46080       -4.18610
C         -0.87870        9.07270       -3.96620
Cl        -2.22410        8.47900       -3.08620
Cl        -1.78550       11.65340       -3.66080
C         -0.76060        6.01940       -4.93800
S         -2.28800        6.52670       -5.61950
C          2.51480        6.80000       -3.29180
C          3.38640        5.89120       -2.76920
S          2.87590        4.24000       -3.04650
C          4.60330        6.09230       -2.05400
C          5.30360        5.12340       -1.39900
C          6.49090        5.59250       -0.79040
C          7.43740        4.85180       -0.06360
C          7.25660        3.42530        0.15890
S          6.98160        2.33120       -1.16640
C          6.84410        0.96270       -0.11630
C          6.61630       -0.40550       -0.65750
C          7.91250       -1.00750       -1.20390
C          7.01700        1.34610        1.17970
Cl         6.94440        0.27020        2.51340
C          7.24950        2.73890        1.34140
Cl         7.41040        3.46960        2.88400
C          8.54240        5.54580        0.41380
C          8.72820        6.93410        0.20350
C          7.76670        7.67740       -0.49930
C          7.92660        9.10320       -0.74140
S          9.34120        9.73180       -1.53400
C          8.74790       11.35650       -1.47970
C          9.51430       12.48020       -2.08490
C          9.19340       12.62050       -3.57500
C          7.52250       11.39180       -0.88490
C          7.05430       10.11800       -0.46320
Cl         5.57680        9.91540        0.38140
Cl         6.61630       12.82940       -0.64750
C          6.66470        6.98470       -0.98480
S          5.37010        7.65950       -1.93690
C          9.94690        7.39230        0.78370
C         10.65100        6.40350        1.37160
S          9.88650        4.85660        1.27780
H          3.53310       -9.82540       12.31390
H          4.57020       -8.51310       10.31840
H          7.97060       -5.56210        6.23220
H          7.43250       -6.92180        5.22820
H          7.38570       -4.80620        3.93000
H          6.29340       -4.08630        5.11550
H          5.75040       -5.44680        4.12830
H         -5.38670       -8.77320        9.52620
H         -5.50930      -10.47380       10.01970
H         -4.62890       -8.16650       11.82620
H         -6.20940       -8.95640       11.86330
H         -4.75970       -9.85850       12.31590
H         -1.62530       -8.27130        6.73200
H          0.80140       -5.91330        3.33290
H          3.81470       -1.67160        0.44860
H          2.96260       -1.36100        1.97220
H          5.26740       -2.15100        2.42160
H          4.09350       -3.33350        3.00410
H          4.96250       -3.62460        1.49410
H         -7.44620       -9.38550        4.32120
H         -8.75360       -8.20310        4.11590
H         -9.01300       -8.90830        1.73850
H         -7.70670      -10.08060        1.93870
H         -9.21920      -10.28130        2.83010
H         -5.29510       -5.62310       -0.39920
H         -6.29680       -3.57150       -1.89940
H        -11.23420       -1.17620       -0.07310
H         -9.72920       -0.53470        0.60710
H         -8.86510       -2.84820        0.91540
H        -10.39200       -2.62210        1.77360
H        -10.36170       -3.50420        0.24430
H          0.89040       -0.84350       -7.00740
H          0.80260       -1.49030       -8.65560
H          0.95720       -3.16570       -6.09790
H          0.90840       -3.81090       -7.74190
H          2.30020       -2.86360       -7.20480
H         -4.47430        0.30380       -7.51170
H         -8.38070        3.23940       -6.07330
H         -9.83730        6.40540       -5.81420
H        -10.11170        4.71240       -5.37940
H         -9.57840        5.87380       -4.15750
H         -7.41950        7.27220       -5.03110
H         -5.04000        6.89040       -5.52620
H         -1.88640        2.92640       -5.59310
H          0.00200       -1.96190       -3.39120
H         -1.47840       -1.10790       -2.93670
H         -0.35780       -0.29370       -0.85180
H         -0.36040       -2.05930       -0.93850
H          1.11270       -1.15890       -1.31030
H          2.09820       12.06930       -5.23290
H          0.63040       12.83510       -4.59400
H         -0.53250       12.40540       -6.75620
H          0.92320       11.63340       -7.39290
H          0.93340       13.35830       -7.00830
H          2.66740        7.86080       -3.20830
H          4.96860        4.10330       -1.35480
H          5.87490       -0.36020       -1.45770
H          6.23120       -1.03710        0.14470
H          8.30860       -0.38810       -2.00490
H          8.65830       -1.07660       -0.41580
H          7.72320       -2.00390       -1.59380
H         10.58310       12.29980       -1.95880
H          9.25020       13.40370       -1.56620
H          9.75640       13.44610       -4.00150
H          8.13260       12.81210       -3.71510
H          9.45490       11.70780       -4.10510
H         10.26870        8.41680        0.75470
H         11.59470        6.47790        1.87560
