106

C          6.98490        4.85030        5.80570
S          5.34560        4.38820        5.69250
C          5.66280        3.28340        4.38840
C          7.02570        3.26190        4.09150
C          7.77650        4.17930        4.90110
C          9.17810        4.28690        4.72820
C          9.81750        3.49120        3.82480
C         11.29810        3.56900        3.61350
C          9.07300        2.54070        3.07490
C          7.72300        2.41850        3.19700
C          4.59560        2.54780        3.80350
S          3.31930        1.93650        4.80200
C          2.50400        1.16710        3.47400
C          3.18410        1.43230        2.27590
C          4.36440        2.22100        2.46470
C          5.10200        2.66550        1.34610
C          4.72120        2.31210        0.08250
C          5.48300        2.76610       -1.12350
C          3.56520        1.51490       -0.09660
C          2.81010        1.09540        0.95720
C          1.32290        0.42330        3.72220
C          0.68350       -0.47800        2.91840
C         -0.51530       -0.98860        3.54060
C         -0.61040       -0.39810        4.76210
C          0.48480        0.60450        4.96660
C          1.00640        0.29500        6.36760
C         -0.25130        0.15790        7.22170
S         -1.49740       -0.74240        6.20470
C         -1.37370       -2.01850        2.99810
C         -1.80460       -2.12190        1.72820
C         -1.72220       -1.14900        0.67910
C         -1.92000       -1.38660       -0.64630
C         -1.88810       -0.16290       -1.42040
C         -1.64180        0.84690       -0.54350
C         -1.45440        0.32190        0.84510
C         -2.31690        1.22280        1.72090
C         -1.96460        2.63260        1.25580
S         -1.82800        2.56680       -0.58250
C         -2.04530       -0.06400       -2.85240
C         -2.77820       -0.87850       -3.62010
C         -3.72540       -1.88140       -3.15760
C         -3.80320       -3.17780       -3.53080
C         -4.94470       -3.84390       -2.91960
C         -5.60100       -2.90150       -2.20050
C         -4.97390       -1.55110       -2.37290
C         -5.02400       -0.91490       -0.98980
C         -6.44410       -1.18870       -0.50310
S         -6.85390       -2.91450       -1.00350
C         -5.23020       -5.26110       -2.99250
C         -5.21160       -6.03240       -4.09380
C         -5.14280       -5.62070       -5.46470
C         -4.86380       -6.42100       -6.52780
C         -5.01710       -5.71650       -7.78390
C         -5.39190       -4.44620       -7.47150
C         -5.42380       -4.23880       -5.99010
C         -6.74450       -3.52260       -5.73280
C         -6.77690       -2.41400       -6.78040
S         -6.11280       -3.13710       -8.34180
C         -4.86970       -6.25030       -9.11540
C         -4.48580       -7.48700       -9.41620
H          7.28210        5.58220        6.52960
H          9.72300        4.99800        5.33170
H         11.51990        3.80260        2.57260
H         11.76290        2.61100        3.84470
H         11.74310        4.33360        4.24520
H          9.61060        1.89480        2.39580
H          7.18140        1.67250        2.63590
H          5.95260        3.31120        1.50260
H          4.83740        3.34380       -1.78430
H          6.33280        3.38120       -0.83900
H          5.84630        1.90570       -1.68490
H          3.26760        1.25870       -1.10310
H          1.91350        0.52670        0.77690
H          1.06400       -0.89310        2.00340
H          0.07060        1.62200        4.96520
H          1.56060       -0.64520        6.35050
H          1.65020        1.07820        6.76530
H         -0.67300        1.13320        7.46790
H         -0.09250       -0.40780        8.13690
H         -1.67130       -2.77810        3.71130
H         -2.33930       -3.02300        1.45000
H         -2.08570       -2.35130       -1.09330
H         -0.41060        0.47270        1.14320
H         -3.37360        1.01230        1.54370
H         -2.10590        1.09820        2.78230
H         -2.71500        3.37840        1.50900
H         -0.99400        2.94580        1.64380
H         -1.47260        0.72630       -3.32190
H         -2.69900       -0.77860       -4.69760
H         -3.06370       -3.70670       -4.10810
H         -5.60780       -0.94710       -3.04070
H         -4.30520       -1.40020       -0.32970
H         -4.81790        0.15510       -1.01350
H         -7.16840       -0.52880       -0.98370
H         -6.55170       -1.11720        0.57720
H         -5.46390       -5.72330       -2.04040
H         -5.32460       -7.10220       -3.96150
H         -4.59660       -7.46060       -6.46200
H         -4.60700       -3.56590       -5.70480
H         -7.57380       -4.21610       -5.88430
H         -6.80890       -3.11140       -4.72620
H         -7.77570       -2.03470       -6.98520
H         -6.12410       -1.58550       -6.50110
H         -5.10450       -5.54680       -9.90540
H         -4.23760       -8.21110       -8.65920
H         -4.40450       -7.81780      -10.43700
