258

C          1.54690       -5.76650        1.21020
S          1.22520       -7.37780        0.71620
C          0.30590       -6.81130       -0.65550
C          0.28430       -5.43210       -0.69160
C          0.99220       -4.83810        0.38110
C          1.06830       -3.35700        0.61500
C          0.17940       -2.97580        1.80450
C          0.67140       -2.60110       -0.65710
C         -0.57550       -3.18960       -1.31000
C         -0.32330       -4.61660       -1.79940
C          0.58590       -4.72700       -2.99970
C          1.00360       -3.75810       -3.79130
C         -0.31400       -7.72830       -1.55320
C         -0.12360       -9.06400       -1.52490
C         -0.72200      -10.00020       -2.41250
S         -1.96430       -9.52140       -3.54250
C         -2.09050      -11.14020       -4.17400
C         -1.22590      -11.98990       -3.51060
C         -0.44140      -11.34890       -2.53270
C          0.63600      -12.05040       -1.75900
C          2.01370      -11.63640       -2.29190
C          0.43300      -13.56690       -1.83540
C          0.18570      -14.02790       -3.26650
C         -1.14240      -13.46110       -3.79220
C         -2.28900      -14.22040       -3.17360
C         -3.12980      -13.75400       -2.26990
C         -3.06150      -11.52220       -5.15790
C         -3.64480      -10.76370       -6.10590
C         -3.29070       -9.41260       -6.44740
C         -2.05420       -8.84560       -6.49500
C         -2.06780       -7.46470       -6.81050
C         -0.99030       -6.56870       -6.82750
C          0.38420       -6.90910       -6.43840
C          1.46970       -6.43700       -7.17250
C          2.76460       -6.56640       -6.70880
C          3.02230       -7.17960       -5.48790
S          4.60750       -7.33130       -4.74110
C          5.68670       -6.31400       -5.81440
C          7.07740       -6.27750       -5.21130
C          1.93120       -7.70820       -4.79510
F          2.15090       -8.33520       -3.61780
C          0.63650       -7.58050       -5.24320
C         -1.30160       -5.24070       -7.07700
C         -2.61460       -4.74790       -7.27260
C         -3.68700       -5.65650       -7.29590
C         -5.07370       -5.21750       -7.49970
C         -5.64190       -4.21450       -6.72110
C         -6.94600       -3.80350       -6.92210
C         -7.73150       -4.38570       -7.90980
S         -9.39020       -3.94310       -8.30420
C         -9.89840       -2.82620       -6.95240
C        -10.14860       -3.56850       -5.65300
C         -7.15030       -5.39700       -8.67790
C         -5.85410       -5.81640       -8.48660
F         -7.88160       -5.98060       -9.64840
C         -3.37980       -6.99130       -7.07030
S         -4.54830       -8.27640       -6.90670
C         -2.64590       -3.32510       -7.30610
C         -1.42750       -2.75310       -7.09230
S         -0.14590       -3.94990       -6.98550
C         -1.06090       -1.42690       -6.71320
C          0.14230       -1.14050       -6.13980
C          0.20450        0.12760       -5.52570
C          1.20150        0.57440       -4.64430
C          2.35070       -0.28780       -4.33280
C          2.63540       -0.62530       -3.01180
C          3.61850       -1.54300       -2.69820
C          4.34870       -2.17290       -3.69830
S          5.60320       -3.37970       -3.42910
C          5.25830       -4.03570       -1.75910
C          4.01230       -4.89760       -1.72710
C          4.08320       -1.79560       -5.01590
F          4.78660       -2.37230       -6.01470
C          3.11300       -0.87450       -5.34230
C          0.92640        1.74960       -3.96810
C         -0.26340        2.50350       -4.13960
C         -1.24890        2.05430       -5.03870
C         -2.52550        2.75670       -5.21900
C         -2.98650        3.06180       -6.49860
C         -4.18070        3.72650       -6.67510
C         -4.97260        4.09530       -5.58930
S         -6.50680        4.90500       -5.93540
C         -6.61730        6.20350       -4.64850
C         -5.42730        7.14090       -4.68480
C         -4.52140        3.74410       -4.32080
C         -3.31550        3.10170       -4.12740
F         -5.26120        4.01460       -3.22180
C         -0.99520        0.85930       -5.69830
S         -2.15850       -0.06030       -6.63720
C         -0.33010        3.59030       -3.22290
C          0.71810        3.63160       -2.35330
S          1.93470        2.42030       -2.72330
C          0.85890        4.28880       -1.09230
C          1.64270        3.78810       -0.09560
C          1.45800        4.41710        1.15370
C          2.00760        4.01200        2.38130
C          2.74540        2.74420        2.44990
C          2.18390        1.60540        1.86530
C          2.88060        0.42120        1.81150
C          4.15930        0.31010        2.35780
S          4.96630       -1.24790        2.16540
C          6.75260       -0.82180        2.10920
C          7.49110       -1.89300        1.33070
C          4.66690        1.42280        3.02120
F          5.86240        1.36530        3.65350
C          3.98870        2.62730        3.05790
C          1.72290        4.81730        3.46950
C          0.85790        5.93960        3.38880
C          0.23140        6.27890        2.17490
C         -0.75000        7.36670        2.10700
C         -1.79650        7.43810        3.02280
C         -2.72230        8.46170        2.97510
C         -2.62940        9.46090        2.01280
S         -3.72840       10.82530        1.83880
C         -4.74530       10.78640        3.35510
C         -3.97640       11.22400        4.58780
C         -1.58800        9.36380        1.08700
C         -0.66430        8.34410        1.11750
F         -1.47650       10.30680        0.13060
C          0.56490        5.51080        1.06890
S         -0.10160        5.64890       -0.54660
C          0.72520        6.58510        4.64520
C          1.42290        5.98230        5.64750
S          2.30300        4.57040        5.09270
C          1.49230        6.34940        7.02290
C          2.27390        5.78300        7.98280
C          2.09810        6.35100        9.27000
C          2.74010        5.99010       10.46460
C          3.69870        4.87830       10.47850
C          4.98810        5.03440       10.98230
C          5.90450        4.00810       10.88950
C          5.56870        2.78430       10.31410
S          6.82680        1.54550       10.21470
C          6.57190        0.80590        8.55640
C          6.62430        1.84210        7.45200
C          4.25500        2.61810        9.88520
F          3.83260        1.43600        9.38540
C          3.33660        3.64550        9.94330
C          2.42010        6.73410       11.59040
C          1.46520        7.78060       11.57940
C          0.80720        8.12520       10.38960
C         -0.22490        9.16850       10.33750
C         -1.31490        9.14840       11.20660
C         -2.31170       10.09380       11.10270
C         -2.25930       11.10510       10.14270
S         -3.59120       12.26200       10.12380
C         -3.69640       12.79640        8.36810
C         -5.10190       13.29340        8.09190
C         -1.14520       11.13540        9.30930
C         -0.15240       10.18010        9.38660
F         -0.98960       12.11450        8.38890
C          1.15910        7.41010        9.25450
S          0.49120        7.64170        7.65740
C          1.32720        8.37650       12.86840
C          2.11170        7.79850       13.80020
S          3.07700        6.49860       13.18890
H          2.13330       -5.59530        2.09150
H          2.10140       -3.09480        0.87700
H         -0.85620       -3.24890        1.61710
H          0.50910       -3.49420        2.70130
H          0.22860       -1.90440        1.98910
H          1.49250       -2.65040       -1.37250
H          0.49790       -1.55010       -0.41330
H         -0.88950       -2.56450       -2.14770
H         -1.39490       -3.20630       -0.58870
H         -1.28420       -5.06460       -2.08890
H          0.91560       -5.73970       -3.19030
H          0.71960       -2.72670       -3.66990
H          1.66150       -3.97000       -4.61800
H         -0.97120       -7.30020       -2.29990
H          0.55190       -9.47490       -0.78680
H          0.57710      -11.74660       -0.70730
H          2.79880      -12.13060       -1.72400
H          2.12130      -11.90620       -3.33940
H          2.14960      -10.56150       -2.21220
H         -0.42730      -13.84790       -1.22290
H          1.31370      -14.06820       -1.42960
H          1.00110      -13.69660       -3.91080
H          0.15200      -15.11870       -3.30540
H         -1.18160      -13.62450       -4.87680
H         -2.36920      -15.24690       -3.50980
H         -3.91320      -14.36680       -1.85710
H         -3.07850      -12.74060       -1.90750
H         -3.38070      -12.55430       -5.07740
H         -4.46530      -11.18700       -6.67030
H         -1.15050       -9.40050       -6.32020
H          1.30270       -5.96030       -8.12640
H          3.57270       -6.16890       -7.30020
H          5.26260       -5.31170       -5.86460
H          5.70540       -6.77200       -6.80340
H          7.48590       -7.28180       -5.12330
H          7.04900       -5.82330       -4.22410
H          7.73280       -5.68380       -5.84410
H         -0.17020       -7.96180       -4.63860
H         -5.06480       -3.76280       -5.92830
H         -7.34180       -3.01740       -6.29990
H        -10.82010       -2.37940       -7.32530
H         -9.15120       -2.04060       -6.84960
H        -10.47460       -2.87000       -4.88450
H        -10.92380       -4.31790       -5.79390
H         -9.24740       -4.07060       -5.30780
H         -5.45450       -6.59480       -9.11730
H         -3.54530       -2.74890       -7.43050
H          0.93480       -1.86240       -6.07910
H          2.05710       -0.19020       -2.21200
H          3.80390       -1.77380       -1.66130
H          6.14630       -4.62540       -1.53010
H          5.20630       -3.20400       -1.05750
H          3.13560       -4.33320       -2.03810
H          4.12230       -5.75100       -2.39220
H          3.84450       -5.26610       -0.71710
H          2.95740       -0.61950       -6.37900
H         -2.38920        2.79710       -7.35750
H         -4.52590        3.97610       -7.66610
H         -6.73560        5.73070       -3.67610
H         -7.53870        6.72730       -4.90300
H         -4.50820        6.61250       -4.43750
H         -5.56800        7.94020       -3.96010
H         -5.31720        7.58050       -5.67390
H         -3.02560        2.83680       -3.12220
H         -1.15240        4.28070       -3.16890
H          2.31810        2.96610       -0.24670
H          1.19020        1.65840        1.44720
H          2.45350       -0.44630        1.33240
H          6.83820        0.14730        1.62020
H          7.11960       -0.75310        3.13230
H          8.55550       -1.66880        1.32090
H          7.34500       -2.86900        1.78830
H          7.13600       -1.93510        0.30340
H          4.45210        3.46710        3.55150
H         -1.90370        6.66650        3.77030
H         -3.52420        8.46780        3.69510
H         -5.55160       11.48640        3.13580
H         -5.17310        9.79030        3.46150
H         -3.13440       10.56310        4.78270
H         -3.59310       12.23280        4.45360
H         -4.63650       11.21350        5.45330
H          0.12860        8.33290        0.38660
H          0.14700        7.47820        4.80100
H          2.96860        4.99110        7.76790
H          5.28430        5.97910       11.41100
H          6.91190        4.14200       11.25120
H          5.63400        0.25490        8.55500
H          7.39820        0.10000        8.47280
H          6.54950        1.35190        6.48360
H          5.80030        2.54810        7.54050
H          7.55960        2.39650        7.49140
H          2.33220        3.46500        9.59190
H         -1.39540        8.36380       11.94350
H         -3.16370       10.06410       11.76410
H         -3.45510       11.93130        7.75250
H         -2.96190       13.58290        8.20240
H         -5.17890       13.62060        7.05710
H         -5.34340       14.13240        8.74030
H         -5.82950       12.50380        8.26730
H          0.68850       10.25590        8.71510
H          0.67620        9.20850       13.06670
H          2.19980        8.05480       14.83790
