240

C         -1.85120       -0.61900       13.49500
C         -1.09090       -0.57150       12.38230
C         -1.85630       -0.35830       11.19890
C         -1.40520       -0.29610        9.87140
C         -0.00170       -0.48740        9.53840
S          0.88090        0.71070        8.64150
C          2.34210       -0.21810        8.68940
C          3.58880        0.28290        8.04760
C          3.41270        0.46020        6.54000
C          2.13610       -1.38960        9.35400
Cl         3.34530       -2.58250        9.60190
C          0.80940       -1.54370        9.84140
Cl         0.28160       -2.95520       10.66370
C         -2.35700       -0.05070        8.89140
C         -3.73030        0.12250        9.18550
C         -4.18820        0.04000       10.51100
C         -5.60350        0.19040       10.80810
S         -6.79040       -0.77140        9.97460
C         -8.10780       -0.00040       10.78950
C         -9.51610       -0.33900       10.44610
C         -9.88260        0.19800        9.06030
C         -7.63870        0.93790       11.65910
C         -6.22080        1.04530       11.67750
Cl        -5.40260        2.20980       12.63140
Cl        -8.64240        1.91880       12.64730
C         -3.23400       -0.20340       11.49110
S         -3.53800       -0.39050       13.19390
C         -4.48910        0.37570        8.01750
C         -3.75280        0.35170        6.87200
S         -2.05580        0.04200        7.17700
C         -4.24910        0.53420        5.54850
C         -3.60430        0.34950        4.36290
C         -4.42430        0.58820        3.23210
C         -4.07760        0.50660        1.87110
C         -2.70300        0.29250        1.45520
S         -1.44500        1.26890        2.16370
C         -0.22530        0.56780        1.16110
C          1.19970        0.96900        1.29560
C          1.40920        2.45080        0.99320
C         -0.77380       -0.35270        0.32010
Cl         0.12960       -1.26250       -0.82350
C         -2.17820       -0.50940        0.48030
Cl        -3.07130       -1.66960       -0.40750
C         -5.07570        0.80790        0.95230
C         -6.35890        1.28110        1.32440
C         -6.71960        1.31850        2.68170
C         -8.03260        1.75320        3.12990
S         -8.70860        3.28310        2.64970
C        -10.12550        3.05570        3.61590
C        -11.17720        4.10550        3.70280
C        -10.81690        5.15510        4.75700
C        -10.06300        1.86230        4.26980
C         -8.88400        1.11920        3.99300
Cl        -8.63380       -0.45400        4.62580
Cl       -11.28190        1.28610        5.33080
C         -5.74200        0.95420        3.60160
S         -5.91790        1.01750        5.32960
C         -7.08860        1.74840        0.20150
C         -6.41670        1.62810       -0.97700
S         -4.86910        0.83230       -0.77010
C         -6.74710        2.22440       -2.23540
S         -7.49400        3.80740       -2.20130
C         -7.31350        3.97110       -3.92490
C         -6.80060        2.82890       -4.47580
C         -6.44220        1.84900       -3.51770
C         -5.71490        0.61080       -3.94060
C         -4.22070        0.94490       -4.06220
C         -6.24630        0.06530       -5.28630
C         -7.20310        1.01130       -6.01060
C         -6.73130        2.47590       -5.93040
C         -7.60790        3.33310       -6.78990
C         -7.22880        3.87860       -7.92980
C         -7.49790        5.25280       -4.58950
C         -6.45730        5.85990       -5.16960
C         -5.10940        5.32970       -5.03750
C         -4.47140        5.03530       -3.87530
C         -3.22200        4.38440       -4.04740
C         -2.32560        3.92700       -3.06450
C         -2.50110        4.19550       -1.64730
S         -4.01080        3.93490       -0.82920
C         -3.35780        4.36220        0.71150
C         -4.18640        4.32100        1.94820
C         -5.59130        4.86850        1.71860
C         -2.04700        4.71190        0.58050
Cl        -1.06060        5.21680        1.89000
C         -1.55910        4.62550       -0.74960
Cl         0.02080        5.14290       -1.16730
C         -1.24440        3.17120       -3.51020
C         -0.97250        2.94660       -4.88050
C         -1.80480        3.50580       -5.86380
C         -1.49250        3.35050       -7.27680
S          0.01060        3.94630       -7.91810
C         -0.38020        3.43250       -9.52400
C          0.53320        3.70910      -10.66640
C          0.30770        5.11960      -11.21630
C         -1.60630        2.83850       -9.54620
C         -2.23540        2.78550       -8.27320
Cl        -3.73550        2.00200       -8.02980
Cl        -2.33760        2.19680      -10.96180
C         -2.92810        4.19040       -5.42090
S         -4.15380        4.89750       -6.43730
C          0.12640        2.07310       -5.07080
C          0.67520        1.62970       -3.90480
S         -0.13320        2.29200       -2.50090
C          1.74510        0.70020       -3.74180
C          2.41210        0.37940       -2.59790
C          3.37090       -0.64920       -2.77240
C          4.16410       -1.27050       -1.79510
C          4.15420       -0.85410       -0.40040
S          4.65440        0.73960        0.07930
C          4.45870        0.37720        1.76020
C          4.77920        1.37550        2.81810
C          6.14780        1.09210        3.44180
C          4.02980       -0.90660        1.92100
Cl         3.69170       -1.61710        3.44310
C          3.85960       -1.61040        0.69900
Cl         3.27050       -3.21820        0.62520
C          4.97910       -2.31460       -2.20890
C          5.04610       -2.75190       -3.55410
C          4.23010       -2.15130       -4.52910
C          4.23020       -2.63870       -5.89820
S          4.48130       -1.57370       -7.24870
C          4.36200       -2.86750       -8.39130
C          4.56500       -2.63910       -9.84830
C          6.03880       -2.81040      -10.22550
C          4.13940       -4.04860       -7.74820
C          4.06080       -3.92420       -6.33580
Cl         3.71010       -5.25950       -5.31260
Cl         3.95290       -5.55350       -8.55090
C          3.41970       -1.10440       -4.11400
S          2.29370       -0.23810       -5.11840
C          5.99980       -3.78200       -3.72540
C          6.61530       -4.15330       -2.56450
S          6.06790       -3.21470       -1.19460
C          7.56380       -5.20810       -2.40150
C          8.09550       -5.98610       -3.38810
C          8.95080       -7.00600       -2.90610
C          9.65790       -7.96700       -3.64980
C          9.56070       -8.01570       -5.09900
S          8.01410       -8.06080       -5.89710
C          8.73430       -8.10670       -7.46950
C          7.89550       -8.08650       -8.69910
C          7.45920       -6.65830       -9.03580
C         10.09280       -8.08350       -7.36630
Cl        11.15520       -8.10570       -8.71380
C         10.56540       -8.03890       -6.02650
Cl        12.23280       -7.92640       -5.64880
C         10.42670       -8.87560       -2.93100
C         10.53420       -8.84630       -1.51910
C          9.86750       -7.85480       -0.78240
C         10.00100       -7.76090        0.66180
S          8.60750       -7.69050        1.69830
C          9.57880       -7.57650        3.12580
C          8.95230       -7.42370        4.46750
C          8.49140       -5.98140        4.69070
C         10.90250       -7.58250        2.80080
C         11.14640       -7.69290        1.40540
Cl        12.72760       -7.65710        0.73800
Cl        12.17340       -7.47280        3.94940
C          9.06970       -6.96960       -1.49590
S          8.12330       -5.67920       -0.81220
C         11.30680       -9.93910       -1.02880
C         11.76220      -10.74070       -2.01280
S         11.29300      -10.23050       -3.59620
H         -1.52860       -0.77080       14.50660
H         -0.02190       -0.67660       12.38530
H          3.86270        1.24340        8.49190
H          4.39010       -0.42980        8.24870
H          3.15580       -0.48780        6.07480
H          2.61780        1.17400        6.33550
H          4.33720        0.82440        6.10010
H        -10.17360        0.09750       11.19960
H         -9.64460       -1.42350       10.45720
H         -9.23690       -0.23870        8.30190
H        -10.91390       -0.04970        8.82380
H         -9.76940        1.27910        9.03080
H         -5.54670        0.56560        8.01580
H         -2.57910        0.03230        4.30780
H          1.53700        0.75800        2.31380
H          1.78350        0.35400        0.61030
H          0.85400        3.06080        1.70080
H          2.46370        2.70280        1.06500
H          1.06330        2.68490       -0.00990
H        -12.12380        3.63100        3.96820
H        -11.28730        4.58990        2.73110
H        -10.71430        4.68840        5.73340
H        -11.59550        5.91100        4.81200
H         -9.87710        5.63890        4.50180
H         -8.06550        2.19170        0.26600
H         -5.82570       -0.15290       -3.16490
H         -3.65070        0.03960       -4.25650
H         -4.04980        1.64440       -4.87640
H         -3.84810        1.39430       -3.14470
H         -5.39320       -0.13520       -5.93630
H         -6.75870       -0.88390       -5.12080
H         -7.28540        0.71170       -7.05670
H         -8.19920        0.94900       -5.56500
H         -5.70140        2.53450       -6.29270
H         -8.62680        3.44240       -6.44070
H         -6.22340        3.77510       -8.30220
H         -7.90390        4.45710       -8.53700
H         -8.48150        5.70070       -4.59760
H         -6.58920        6.75760       -5.75690
H         -4.89480        5.26080       -2.91420
H         -3.67520        4.89900        2.72070
H         -4.25350        3.28720        2.30070
H         -6.11410        4.27930        0.96840
H         -5.54680        5.89970        1.37740
H         -6.16230        4.83110        2.64180
H          0.34380        2.97540      -11.45210
H          1.56850        3.60930      -10.33550
H         -0.71740        5.23060      -11.56060
H          0.49670        5.86040      -10.44290
H          0.97800        5.30660      -12.05070
H          0.48760        1.76660       -6.03620
H          2.21500        0.86090       -1.65760
H          4.01130        1.32820        3.59380
H          4.77640        2.37590        2.38330
H          6.15800        0.10440        3.89490
H          6.92520        1.13320        2.68310
H          6.36970        1.83150        4.20690
H          4.23630       -1.63140      -10.10580
H          3.96160       -3.35890      -10.40490
H          6.65230       -2.09540       -9.68270
H          6.37570       -3.81450       -9.98090
H          6.17240       -2.64710      -11.29130
H          6.22120       -4.22950       -4.67530
H          7.88170       -5.83740       -4.42920
H          8.47570       -8.49830       -9.52650
H          7.01070       -8.70710       -8.54690
H          6.87620       -6.24100       -8.21810
H          6.84720       -6.65880       -9.93390
H          8.32880       -6.02730       -9.20370
H          8.09400       -8.09350        4.54630
H          9.68330       -7.69990        5.22920
H          9.33780       -5.30170        4.63180
H          8.03290       -5.88360        5.67100
H          7.76420       -5.69720        3.93380
H         11.48810      -10.11510        0.01510
H         12.36040      -11.62570       -1.91710
