
  xtb     03042213443D
 energy: -426.826744800321 gnorm: 0.000515420893 xtb: 6.4.1 (unknown)
258281  0     0  0            999 V2000
    1.5469   -5.7665    1.2102 C   0  0  0  0  0  0  0  0  0  0  0  0
    1.2252   -7.3778    0.7162 S   0  0  0  0  0  0  0  0  0  0  0  0
    0.3059   -6.8113   -0.6555 C   0  0  0  0  0  0  0  0  0  0  0  0
    0.2843   -5.4321   -0.6916 C   0  0  0  0  0  0  0  0  0  0  0  0
    0.9922   -4.8381    0.3811 C   0  0  0  0  0  0  0  0  0  0  0  0
    1.0683   -3.3570    0.6150 C   0  0  0  0  0  0  0  0  0  0  0  0
    0.1794   -2.9758    1.8045 C   0  0  0  0  0  0  0  0  0  0  0  0
    0.6714   -2.6011   -0.6571 C   0  0  0  0  0  0  0  0  0  0  0  0
   -0.5755   -3.1896   -1.3100 C   0  0  0  0  0  0  0  0  0  0  0  0
   -0.3233   -4.6166   -1.7994 C   0  0  0  0  0  0  0  0  0  0  0  0
    0.5859   -4.7270   -2.9997 C   0  0  0  0  0  0  0  0  0  0  0  0
    1.0036   -3.7581   -3.7913 C   0  0  0  0  0  0  0  0  0  0  0  0
   -0.3140   -7.7283   -1.5532 C   0  0  0  0  0  0  0  0  0  0  0  0
   -0.1236   -9.0640   -1.5249 C   0  0  0  0  0  0  0  0  0  0  0  0
   -0.7220  -10.0002   -2.4125 C   0  0  0  0  0  0  0  0  0  0  0  0
   -1.9643   -9.5214   -3.5425 S   0  0  0  0  0  0  0  0  0  0  0  0
   -2.0905  -11.1402   -4.1740 C   0  0  0  0  0  0  0  0  0  0  0  0
   -1.2259  -11.9899   -3.5106 C   0  0  0  0  0  0  0  0  0  0  0  0
   -0.4414  -11.3489   -2.5327 C   0  0  0  0  0  0  0  0  0  0  0  0
    0.6360  -12.0504   -1.7590 C   0  0  0  0  0  0  0  0  0  0  0  0
    2.0137  -11.6364   -2.2919 C   0  0  0  0  0  0  0  0  0  0  0  0
    0.4330  -13.5669   -1.8354 C   0  0  0  0  0  0  0  0  0  0  0  0
    0.1857  -14.0279   -3.2665 C   0  0  0  0  0  0  0  0  0  0  0  0
   -1.1424  -13.4611   -3.7922 C   0  0  0  0  0  0  0  0  0  0  0  0
   -2.2890  -14.2204   -3.1736 C   0  0  0  0  0  0  0  0  0  0  0  0
   -3.1298  -13.7540   -2.2699 C   0  0  0  0  0  0  0  0  0  0  0  0
   -3.0615  -11.5222   -5.1579 C   0  0  0  0  0  0  0  0  0  0  0  0
   -3.6448  -10.7637   -6.1059 C   0  0  0  0  0  0  0  0  0  0  0  0
   -3.2907   -9.4126   -6.4474 C   0  0  0  0  0  0  0  0  0  0  0  0
   -2.0542   -8.8456   -6.4950 C   0  0  0  0  0  0  0  0  0  0  0  0
   -2.0678   -7.4647   -6.8105 C   0  0  0  0  0  0  0  0  0  0  0  0
   -0.9903   -6.5687   -6.8275 C   0  0  0  0  0  0  0  0  0  0  0  0
    0.3842   -6.9091   -6.4384 C   0  0  0  0  0  0  0  0  0  0  0  0
    1.4697   -6.4370   -7.1725 C   0  0  0  0  0  0  0  0  0  0  0  0
    2.7646   -6.5664   -6.7088 C   0  0  0  0  0  0  0  0  0  0  0  0
    3.0223   -7.1796   -5.4879 C   0  0  0  0  0  0  0  0  0  0  0  0
    4.6075   -7.3313   -4.7411 S   0  0  0  0  0  0  0  0  0  0  0  0
    5.6867   -6.3140   -5.8144 C   0  0  0  0  0  0  0  0  0  0  0  0
    7.0774   -6.2775   -5.2113 C   0  0  0  0  0  0  0  0  0  0  0  0
    1.9312   -7.7082   -4.7951 C   0  0  0  0  0  0  0  0  0  0  0  0
    2.1509   -8.3352   -3.6178 F   0  0  0  0  0  0  0  0  0  0  0  0
    0.6365   -7.5805   -5.2432 C   0  0  0  0  0  0  0  0  0  0  0  0
   -1.3016   -5.2407   -7.0770 C   0  0  0  0  0  0  0  0  0  0  0  0
   -2.6146   -4.7479   -7.2726 C   0  0  0  0  0  0  0  0  0  0  0  0
   -3.6870   -5.6565   -7.2959 C   0  0  0  0  0  0  0  0  0  0  0  0
   -5.0737   -5.2175   -7.4997 C   0  0  0  0  0  0  0  0  0  0  0  0
   -5.6419   -4.2145   -6.7211 C   0  0  0  0  0  0  0  0  0  0  0  0
   -6.9460   -3.8035   -6.9221 C   0  0  0  0  0  0  0  0  0  0  0  0
   -7.7315   -4.3857   -7.9098 C   0  0  0  0  0  0  0  0  0  0  0  0
   -9.3902   -3.9431   -8.3042 S   0  0  0  0  0  0  0  0  0  0  0  0
   -9.8984   -2.8262   -6.9524 C   0  0  0  0  0  0  0  0  0  0  0  0
  -10.1486   -3.5685   -5.6530 C   0  0  0  0  0  0  0  0  0  0  0  0
   -7.1503   -5.3970   -8.6779 C   0  0  0  0  0  0  0  0  0  0  0  0
   -5.8541   -5.8164   -8.4866 C   0  0  0  0  0  0  0  0  0  0  0  0
   -7.8816   -5.9806   -9.6484 F   0  0  0  0  0  0  0  0  0  0  0  0
   -3.3798   -6.9913   -7.0703 C   0  0  0  0  0  0  0  0  0  0  0  0
   -4.5483   -8.2764   -6.9067 S   0  0  0  0  0  0  0  0  0  0  0  0
   -2.6459   -3.3251   -7.3061 C   0  0  0  0  0  0  0  0  0  0  0  0
   -1.4275   -2.7531   -7.0923 C   0  0  0  0  0  0  0  0  0  0  0  0
   -0.1459   -3.9499   -6.9855 S   0  0  0  0  0  0  0  0  0  0  0  0
   -1.0609   -1.4269   -6.7132 C   0  0  0  0  0  0  0  0  0  0  0  0
    0.1423   -1.1405   -6.1398 C   0  0  0  0  0  0  0  0  0  0  0  0
    0.2045    0.1276   -5.5257 C   0  0  0  0  0  0  0  0  0  0  0  0
    1.2015    0.5744   -4.6443 C   0  0  0  0  0  0  0  0  0  0  0  0
    2.3507   -0.2878   -4.3328 C   0  0  0  0  0  0  0  0  0  0  0  0
    2.6354   -0.6253   -3.0118 C   0  0  0  0  0  0  0  0  0  0  0  0
    3.6185   -1.5430   -2.6982 C   0  0  0  0  0  0  0  0  0  0  0  0
    4.3487   -2.1729   -3.6983 C   0  0  0  0  0  0  0  0  0  0  0  0
    5.6032   -3.3797   -3.4291 S   0  0  0  0  0  0  0  0  0  0  0  0
    5.2583   -4.0357   -1.7591 C   0  0  0  0  0  0  0  0  0  0  0  0
    4.0123   -4.8976   -1.7271 C   0  0  0  0  0  0  0  0  0  0  0  0
    4.0832   -1.7956   -5.0159 C   0  0  0  0  0  0  0  0  0  0  0  0
    4.7866   -2.3723   -6.0147 F   0  0  0  0  0  0  0  0  0  0  0  0
    3.1130   -0.8745   -5.3423 C   0  0  0  0  0  0  0  0  0  0  0  0
    0.9264    1.7496   -3.9681 C   0  0  0  0  0  0  0  0  0  0  0  0
   -0.2634    2.5035   -4.1396 C   0  0  0  0  0  0  0  0  0  0  0  0
   -1.2489    2.0543   -5.0387 C   0  0  0  0  0  0  0  0  0  0  0  0
   -2.5255    2.7567   -5.2190 C   0  0  0  0  0  0  0  0  0  0  0  0
   -2.9865    3.0618   -6.4986 C   0  0  0  0  0  0  0  0  0  0  0  0
   -4.1807    3.7265   -6.6751 C   0  0  0  0  0  0  0  0  0  0  0  0
   -4.9726    4.0953   -5.5893 C   0  0  0  0  0  0  0  0  0  0  0  0
   -6.5068    4.9050   -5.9354 S   0  0  0  0  0  0  0  0  0  0  0  0
   -6.6173    6.2035   -4.6485 C   0  0  0  0  0  0  0  0  0  0  0  0
   -5.4273    7.1409   -4.6848 C   0  0  0  0  0  0  0  0  0  0  0  0
   -4.5214    3.7441   -4.3208 C   0  0  0  0  0  0  0  0  0  0  0  0
   -3.3155    3.1017   -4.1274 C   0  0  0  0  0  0  0  0  0  0  0  0
   -5.2612    4.0146   -3.2218 F   0  0  0  0  0  0  0  0  0  0  0  0
   -0.9952    0.8593   -5.6983 C   0  0  0  0  0  0  0  0  0  0  0  0
   -2.1585   -0.0603   -6.6372 S   0  0  0  0  0  0  0  0  0  0  0  0
   -0.3301    3.5903   -3.2229 C   0  0  0  0  0  0  0  0  0  0  0  0
    0.7181    3.6316   -2.3533 C   0  0  0  0  0  0  0  0  0  0  0  0
    1.9347    2.4203   -2.7233 S   0  0  0  0  0  0  0  0  0  0  0  0
    0.8589    4.2888   -1.0923 C   0  0  0  0  0  0  0  0  0  0  0  0
    1.6427    3.7881   -0.0956 C   0  0  0  0  0  0  0  0  0  0  0  0
    1.4580    4.4171    1.1537 C   0  0  0  0  0  0  0  0  0  0  0  0
    2.0076    4.0120    2.3813 C   0  0  0  0  0  0  0  0  0  0  0  0
    2.7454    2.7442    2.4499 C   0  0  0  0  0  0  0  0  0  0  0  0
    2.1839    1.6054    1.8653 C   0  0  0  0  0  0  0  0  0  0  0  0
    2.8806    0.4212    1.8115 C   0  0  0  0  0  0  0  0  0  0  0  0
    4.1593    0.3101    2.3578 C   0  0  0  0  0  0  0  0  0  0  0  0
    4.9663   -1.2479    2.1654 S   0  0  0  0  0  0  0  0  0  0  0  0
    6.7526   -0.8218    2.1092 C   0  0  0  0  0  0  0  0  0  0  0  0
    7.4911   -1.8930    1.3307 C   0  0  0  0  0  0  0  0  0  0  0  0
    4.6669    1.4228    3.0212 C   0  0  0  0  0  0  0  0  0  0  0  0
    5.8624    1.3653    3.6535 F   0  0  0  0  0  0  0  0  0  0  0  0
    3.9887    2.6273    3.0579 C   0  0  0  0  0  0  0  0  0  0  0  0
    1.7229    4.8173    3.4695 C   0  0  0  0  0  0  0  0  0  0  0  0
    0.8579    5.9396    3.3888 C   0  0  0  0  0  0  0  0  0  0  0  0
    0.2314    6.2789    2.1749 C   0  0  0  0  0  0  0  0  0  0  0  0
   -0.7500    7.3667    2.1070 C   0  0  0  0  0  0  0  0  0  0  0  0
   -1.7965    7.4381    3.0228 C   0  0  0  0  0  0  0  0  0  0  0  0
   -2.7223    8.4617    2.9751 C   0  0  0  0  0  0  0  0  0  0  0  0
   -2.6294    9.4609    2.0128 C   0  0  0  0  0  0  0  0  0  0  0  0
   -3.7284   10.8253    1.8388 S   0  0  0  0  0  0  0  0  0  0  0  0
   -4.7453   10.7864    3.3551 C   0  0  0  0  0  0  0  0  0  0  0  0
   -3.9764   11.2240    4.5878 C   0  0  0  0  0  0  0  0  0  0  0  0
   -1.5880    9.3638    1.0870 C   0  0  0  0  0  0  0  0  0  0  0  0
   -0.6643    8.3441    1.1175 C   0  0  0  0  0  0  0  0  0  0  0  0
   -1.4765   10.3068    0.1306 F   0  0  0  0  0  0  0  0  0  0  0  0
    0.5649    5.5108    1.0689 C   0  0  0  0  0  0  0  0  0  0  0  0
   -0.1016    5.6489   -0.5466 S   0  0  0  0  0  0  0  0  0  0  0  0
    0.7252    6.5851    4.6452 C   0  0  0  0  0  0  0  0  0  0  0  0
    1.4229    5.9823    5.6475 C   0  0  0  0  0  0  0  0  0  0  0  0
    2.3030    4.5704    5.0927 S   0  0  0  0  0  0  0  0  0  0  0  0
    1.4923    6.3494    7.0229 C   0  0  0  0  0  0  0  0  0  0  0  0
    2.2739    5.7830    7.9828 C   0  0  0  0  0  0  0  0  0  0  0  0
    2.0981    6.3510    9.2700 C   0  0  0  0  0  0  0  0  0  0  0  0
    2.7401    5.9901   10.4646 C   0  0  0  0  0  0  0  0  0  0  0  0
    3.6987    4.8783   10.4785 C   0  0  0  0  0  0  0  0  0  0  0  0
    4.9881    5.0344   10.9823 C   0  0  0  0  0  0  0  0  0  0  0  0
    5.9045    4.0081   10.8895 C   0  0  0  0  0  0  0  0  0  0  0  0
    5.5687    2.7843   10.3141 C   0  0  0  0  0  0  0  0  0  0  0  0
    6.8268    1.5455   10.2147 S   0  0  0  0  0  0  0  0  0  0  0  0
    6.5719    0.8059    8.5564 C   0  0  0  0  0  0  0  0  0  0  0  0
    6.6243    1.8421    7.4520 C   0  0  0  0  0  0  0  0  0  0  0  0
    4.2550    2.6181    9.8852 C   0  0  0  0  0  0  0  0  0  0  0  0
    3.8326    1.4360    9.3854 F   0  0  0  0  0  0  0  0  0  0  0  0
    3.3366    3.6455    9.9433 C   0  0  0  0  0  0  0  0  0  0  0  0
    2.4201    6.7341   11.5904 C   0  0  0  0  0  0  0  0  0  0  0  0
    1.4652    7.7806   11.5794 C   0  0  0  0  0  0  0  0  0  0  0  0
    0.8072    8.1252   10.3896 C   0  0  0  0  0  0  0  0  0  0  0  0
   -0.2249    9.1685   10.3375 C   0  0  0  0  0  0  0  0  0  0  0  0
   -1.3149    9.1484   11.2066 C   0  0  0  0  0  0  0  0  0  0  0  0
   -2.3117   10.0938   11.1027 C   0  0  0  0  0  0  0  0  0  0  0  0
   -2.2593   11.1051   10.1427 C   0  0  0  0  0  0  0  0  0  0  0  0
   -3.5912   12.2620   10.1238 S   0  0  0  0  0  0  0  0  0  0  0  0
   -3.6964   12.7964    8.3681 C   0  0  0  0  0  0  0  0  0  0  0  0
   -5.1019   13.2934    8.0919 C   0  0  0  0  0  0  0  0  0  0  0  0
   -1.1452   11.1354    9.3093 C   0  0  0  0  0  0  0  0  0  0  0  0
   -0.1524   10.1801    9.3866 C   0  0  0  0  0  0  0  0  0  0  0  0
   -0.9896   12.1145    8.3889 F   0  0  0  0  0  0  0  0  0  0  0  0
    1.1591    7.4101    9.2545 C   0  0  0  0  0  0  0  0  0  0  0  0
    0.4912    7.6417    7.6574 S   0  0  0  0  0  0  0  0  0  0  0  0
    1.3272    8.3765   12.8684 C   0  0  0  0  0  0  0  0  0  0  0  0
    2.1117    7.7985   13.8002 C   0  0  0  0  0  0  0  0  0  0  0  0
    3.0770    6.4986   13.1889 S   0  0  0  0  0  0  0  0  0  0  0  0
    2.1333   -5.5953    2.0915 H   0  0  0  0  0  0  0  0  0  0  0  0
    2.1014   -3.0948    0.8770 H   0  0  0  0  0  0  0  0  0  0  0  0
   -0.8562   -3.2489    1.6171 H   0  0  0  0  0  0  0  0  0  0  0  0
    0.5091   -3.4942    2.7013 H   0  0  0  0  0  0  0  0  0  0  0  0
    0.2286   -1.9044    1.9891 H   0  0  0  0  0  0  0  0  0  0  0  0
    1.4925   -2.6504   -1.3725 H   0  0  0  0  0  0  0  0  0  0  0  0
    0.4979   -1.5501   -0.4133 H   0  0  0  0  0  0  0  0  0  0  0  0
   -0.8895   -2.5645   -2.1477 H   0  0  0  0  0  0  0  0  0  0  0  0
   -1.3949   -3.2063   -0.5887 H   0  0  0  0  0  0  0  0  0  0  0  0
   -1.2842   -5.0646   -2.0889 H   0  0  0  0  0  0  0  0  0  0  0  0
    0.9156   -5.7397   -3.1903 H   0  0  0  0  0  0  0  0  0  0  0  0
    0.7196   -2.7267   -3.6699 H   0  0  0  0  0  0  0  0  0  0  0  0
    1.6615   -3.9700   -4.6180 H   0  0  0  0  0  0  0  0  0  0  0  0
   -0.9712   -7.3002   -2.2999 H   0  0  0  0  0  0  0  0  0  0  0  0
    0.5519   -9.4749   -0.7868 H   0  0  0  0  0  0  0  0  0  0  0  0
    0.5771  -11.7466   -0.7073 H   0  0  0  0  0  0  0  0  0  0  0  0
    2.7988  -12.1306   -1.7240 H   0  0  0  0  0  0  0  0  0  0  0  0
    2.1213  -11.9062   -3.3394 H   0  0  0  0  0  0  0  0  0  0  0  0
    2.1496  -10.5615   -2.2122 H   0  0  0  0  0  0  0  0  0  0  0  0
   -0.4273  -13.8479   -1.2229 H   0  0  0  0  0  0  0  0  0  0  0  0
    1.3137  -14.0682   -1.4296 H   0  0  0  0  0  0  0  0  0  0  0  0
    1.0011  -13.6966   -3.9108 H   0  0  0  0  0  0  0  0  0  0  0  0
    0.1520  -15.1187   -3.3054 H   0  0  0  0  0  0  0  0  0  0  0  0
   -1.1816  -13.6245   -4.8768 H   0  0  0  0  0  0  0  0  0  0  0  0
   -2.3692  -15.2469   -3.5098 H   0  0  0  0  0  0  0  0  0  0  0  0
   -3.9132  -14.3668   -1.8571 H   0  0  0  0  0  0  0  0  0  0  0  0
   -3.0785  -12.7406   -1.9075 H   0  0  0  0  0  0  0  0  0  0  0  0
   -3.3807  -12.5543   -5.0774 H   0  0  0  0  0  0  0  0  0  0  0  0
   -4.4653  -11.1870   -6.6703 H   0  0  0  0  0  0  0  0  0  0  0  0
   -1.1505   -9.4005   -6.3202 H   0  0  0  0  0  0  0  0  0  0  0  0
    1.3027   -5.9603   -8.1264 H   0  0  0  0  0  0  0  0  0  0  0  0
    3.5727   -6.1689   -7.3002 H   0  0  0  0  0  0  0  0  0  0  0  0
    5.2626   -5.3117   -5.8646 H   0  0  0  0  0  0  0  0  0  0  0  0
    5.7054   -6.7720   -6.8034 H   0  0  0  0  0  0  0  0  0  0  0  0
    7.4859   -7.2818   -5.1233 H   0  0  0  0  0  0  0  0  0  0  0  0
    7.0490   -5.8233   -4.2241 H   0  0  0  0  0  0  0  0  0  0  0  0
    7.7328   -5.6838   -5.8441 H   0  0  0  0  0  0  0  0  0  0  0  0
   -0.1702   -7.9618   -4.6386 H   0  0  0  0  0  0  0  0  0  0  0  0
   -5.0648   -3.7628   -5.9283 H   0  0  0  0  0  0  0  0  0  0  0  0
   -7.3418   -3.0174   -6.2999 H   0  0  0  0  0  0  0  0  0  0  0  0
  -10.8201   -2.3794   -7.3253 H   0  0  0  0  0  0  0  0  0  0  0  0
   -9.1512   -2.0406   -6.8496 H   0  0  0  0  0  0  0  0  0  0  0  0
  -10.4746   -2.8700   -4.8845 H   0  0  0  0  0  0  0  0  0  0  0  0
  -10.9238   -4.3179   -5.7939 H   0  0  0  0  0  0  0  0  0  0  0  0
   -9.2474   -4.0706   -5.3078 H   0  0  0  0  0  0  0  0  0  0  0  0
   -5.4545   -6.5948   -9.1173 H   0  0  0  0  0  0  0  0  0  0  0  0
   -3.5453   -2.7489   -7.4305 H   0  0  0  0  0  0  0  0  0  0  0  0
    0.9348   -1.8624   -6.0791 H   0  0  0  0  0  0  0  0  0  0  0  0
    2.0571   -0.1902   -2.2120 H   0  0  0  0  0  0  0  0  0  0  0  0
    3.8039   -1.7738   -1.6613 H   0  0  0  0  0  0  0  0  0  0  0  0
    6.1463   -4.6254   -1.5301 H   0  0  0  0  0  0  0  0  0  0  0  0
    5.2063   -3.2040   -1.0575 H   0  0  0  0  0  0  0  0  0  0  0  0
    3.1356   -4.3332   -2.0381 H   0  0  0  0  0  0  0  0  0  0  0  0
    4.1223   -5.7510   -2.3922 H   0  0  0  0  0  0  0  0  0  0  0  0
    3.8445   -5.2661   -0.7171 H   0  0  0  0  0  0  0  0  0  0  0  0
    2.9574   -0.6195   -6.3790 H   0  0  0  0  0  0  0  0  0  0  0  0
   -2.3892    2.7971   -7.3575 H   0  0  0  0  0  0  0  0  0  0  0  0
   -4.5259    3.9761   -7.6661 H   0  0  0  0  0  0  0  0  0  0  0  0
   -6.7356    5.7307   -3.6761 H   0  0  0  0  0  0  0  0  0  0  0  0
   -7.5387    6.7273   -4.9030 H   0  0  0  0  0  0  0  0  0  0  0  0
   -4.5082    6.6125   -4.4375 H   0  0  0  0  0  0  0  0  0  0  0  0
   -5.5680    7.9402   -3.9601 H   0  0  0  0  0  0  0  0  0  0  0  0
   -5.3172    7.5805   -5.6739 H   0  0  0  0  0  0  0  0  0  0  0  0
   -3.0256    2.8368   -3.1222 H   0  0  0  0  0  0  0  0  0  0  0  0
   -1.1524    4.2807   -3.1689 H   0  0  0  0  0  0  0  0  0  0  0  0
    2.3181    2.9661   -0.2467 H   0  0  0  0  0  0  0  0  0  0  0  0
    1.1902    1.6584    1.4472 H   0  0  0  0  0  0  0  0  0  0  0  0
    2.4535   -0.4463    1.3324 H   0  0  0  0  0  0  0  0  0  0  0  0
    6.8382    0.1473    1.6202 H   0  0  0  0  0  0  0  0  0  0  0  0
    7.1196   -0.7531    3.1323 H   0  0  0  0  0  0  0  0  0  0  0  0
    8.5555   -1.6688    1.3209 H   0  0  0  0  0  0  0  0  0  0  0  0
    7.3450   -2.8690    1.7883 H   0  0  0  0  0  0  0  0  0  0  0  0
    7.1360   -1.9351    0.3034 H   0  0  0  0  0  0  0  0  0  0  0  0
    4.4521    3.4671    3.5515 H   0  0  0  0  0  0  0  0  0  0  0  0
   -1.9037    6.6665    3.7703 H   0  0  0  0  0  0  0  0  0  0  0  0
   -3.5242    8.4678    3.6951 H   0  0  0  0  0  0  0  0  0  0  0  0
   -5.5516   11.4864    3.1358 H   0  0  0  0  0  0  0  0  0  0  0  0
   -5.1731    9.7903    3.4615 H   0  0  0  0  0  0  0  0  0  0  0  0
   -3.1344   10.5631    4.7827 H   0  0  0  0  0  0  0  0  0  0  0  0
   -3.5931   12.2328    4.4536 H   0  0  0  0  0  0  0  0  0  0  0  0
   -4.6365   11.2135    5.4533 H   0  0  0  0  0  0  0  0  0  0  0  0
    0.1286    8.3329    0.3866 H   0  0  0  0  0  0  0  0  0  0  0  0
    0.1470    7.4782    4.8010 H   0  0  0  0  0  0  0  0  0  0  0  0
    2.9686    4.9911    7.7679 H   0  0  0  0  0  0  0  0  0  0  0  0
    5.2843    5.9791   11.4110 H   0  0  0  0  0  0  0  0  0  0  0  0
    6.9119    4.1420   11.2512 H   0  0  0  0  0  0  0  0  0  0  0  0
    5.6340    0.2549    8.5550 H   0  0  0  0  0  0  0  0  0  0  0  0
    7.3982    0.1000    8.4728 H   0  0  0  0  0  0  0  0  0  0  0  0
    6.5495    1.3519    6.4836 H   0  0  0  0  0  0  0  0  0  0  0  0
    5.8003    2.5481    7.5405 H   0  0  0  0  0  0  0  0  0  0  0  0
    7.5596    2.3965    7.4914 H   0  0  0  0  0  0  0  0  0  0  0  0
    2.3322    3.4650    9.5919 H   0  0  0  0  0  0  0  0  0  0  0  0
   -1.3954    8.3638   11.9435 H   0  0  0  0  0  0  0  0  0  0  0  0
   -3.1637   10.0641   11.7641 H   0  0  0  0  0  0  0  0  0  0  0  0
   -3.4551   11.9313    7.7525 H   0  0  0  0  0  0  0  0  0  0  0  0
   -2.9619   13.5829    8.2024 H   0  0  0  0  0  0  0  0  0  0  0  0
   -5.1789   13.6206    7.0571 H   0  0  0  0  0  0  0  0  0  0  0  0
   -5.3434   14.1324    8.7403 H   0  0  0  0  0  0  0  0  0  0  0  0
   -5.8295   12.5038    8.2673 H   0  0  0  0  0  0  0  0  0  0  0  0
    0.6885   10.2559    8.7151 H   0  0  0  0  0  0  0  0  0  0  0  0
    0.6762    9.2085   13.0667 H   0  0  0  0  0  0  0  0  0  0  0  0
    2.1998    8.0548   14.8379 H   0  0  0  0  0  0  0  0  0  0  0  0
  1  2  1  0  0  0  0
  2  3  1  0  0  0  0
  3  4  2  0  0  0  0
  4  5  1  0  0  0  0
  5  6  1  0  0  0  0
  6  7  1  0  0  0  0
  6  8  1  0  0  0  0
  8  9  1  0  0  0  0
  9 10  1  0  0  0  0
 10 11  1  0  0  0  0
 11 12  2  0  0  0  0
  3 13  1  0  0  0  0
 13 14  2  0  0  0  0
 14 15  1  0  0  0  0
 15 16  1  0  0  0  0
 16 17  1  0  0  0  0
 17 18  2  0  0  0  0
 18 19  1  0  0  0  0
 19 20  1  0  0  0  0
 20 21  1  0  0  0  0
 20 22  1  0  0  0  0
 22 23  1  0  0  0  0
 23 24  1  0  0  0  0
 24 25  1  0  0  0  0
 25 26  2  0  0  0  0
 17 27  1  0  0  0  0
 27 28  2  0  0  0  0
 28 29  1  0  0  0  0
 29 30  2  0  0  0  0
 30 31  1  0  0  0  0
 31 32  2  0  0  0  0
 32 33  1  0  0  0  0
 33 34  2  0  0  0  0
 34 35  1  0  0  0  0
 35 36  2  0  0  0  0
 36 37  1  0  0  0  0
 37 38  1  0  0  0  0
 38 39  1  0  0  0  0
 36 40  1  0  0  0  0
 40 41  1  0  0  0  0
 40 42  2  0  0  0  0
 32 43  1  0  0  0  0
 43 44  2  0  0  0  0
 44 45  1  0  0  0  0
 45 46  1  0  0  0  0
 46 47  2  0  0  0  0
 47 48  1  0  0  0  0
 48 49  2  0  0  0  0
 49 50  1  0  0  0  0
 50 51  1  0  0  0  0
 51 52  1  0  0  0  0
 49 53  1  0  0  0  0
 53 54  2  0  0  0  0
 53 55  1  0  0  0  0
 45 56  2  0  0  0  0
 56 57  1  0  0  0  0
 44 58  1  0  0  0  0
 58 59  2  0  0  0  0
 59 60  1  0  0  0  0
 59 61  1  0  0  0  0
 61 62  2  0  0  0  0
 62 63  1  0  0  0  0
 63 64  2  0  0  0  0
 64 65  1  0  0  0  0
 65 66  2  0  0  0  0
 66 67  1  0  0  0  0
 67 68  2  0  0  0  0
 68 69  1  0  0  0  0
 69 70  1  0  0  0  0
 70 71  1  0  0  0  0
 68 72  1  0  0  0  0
 72 73  1  0  0  0  0
 72 74  2  0  0  0  0
 64 75  1  0  0  0  0
 75 76  2  0  0  0  0
 76 77  1  0  0  0  0
 77 78  1  0  0  0  0
 78 79  2  0  0  0  0
 79 80  1  0  0  0  0
 80 81  2  0  0  0  0
 81 82  1  0  0  0  0
 82 83  1  0  0  0  0
 83 84  1  0  0  0  0
 81 85  1  0  0  0  0
 85 86  2  0  0  0  0
 85 87  1  0  0  0  0
 77 88  2  0  0  0  0
 88 89  1  0  0  0  0
 76 90  1  0  0  0  0
 90 91  2  0  0  0  0
 91 92  1  0  0  0  0
 91 93  1  0  0  0  0
 93 94  2  0  0  0  0
 94 95  1  0  0  0  0
 95 96  2  0  0  0  0
 96 97  1  0  0  0  0
 97 98  2  0  0  0  0
 98 99  1  0  0  0  0
 99100  2  0  0  0  0
100101  1  0  0  0  0
101102  1  0  0  0  0
102103  1  0  0  0  0
100104  1  0  0  0  0
104105  1  0  0  0  0
104106  2  0  0  0  0
 96107  1  0  0  0  0
107108  2  0  0  0  0
108109  1  0  0  0  0
109110  1  0  0  0  0
110111  2  0  0  0  0
111112  1  0  0  0  0
112113  2  0  0  0  0
113114  1  0  0  0  0
114115  1  0  0  0  0
115116  1  0  0  0  0
113117  1  0  0  0  0
117118  2  0  0  0  0
117119  1  0  0  0  0
109120  2  0  0  0  0
120121  1  0  0  0  0
108122  1  0  0  0  0
122123  2  0  0  0  0
123124  1  0  0  0  0
123125  1  0  0  0  0
125126  2  0  0  0  0
126127  1  0  0  0  0
127128  2  0  0  0  0
128129  1  0  0  0  0
129130  2  0  0  0  0
130131  1  0  0  0  0
131132  2  0  0  0  0
132133  1  0  0  0  0
133134  1  0  0  0  0
134135  1  0  0  0  0
132136  1  0  0  0  0
136137  1  0  0  0  0
136138  2  0  0  0  0
128139  1  0  0  0  0
139140  2  0  0  0  0
140141  1  0  0  0  0
141142  1  0  0  0  0
142143  2  0  0  0  0
143144  1  0  0  0  0
144145  2  0  0  0  0
145146  1  0  0  0  0
146147  1  0  0  0  0
147148  1  0  0  0  0
145149  1  0  0  0  0
149150  2  0  0  0  0
149151  1  0  0  0  0
141152  2  0  0  0  0
152153  1  0  0  0  0
140154  1  0  0  0  0
154155  2  0  0  0  0
155156  1  0  0  0  0
  5  1  2  0  0  0  0
 19 15  2  0  0  0  0
 57 29  1  0  0  0  0
 89 61  1  0  0  0  0
121 93  1  0  0  0  0
153125  1  0  0  0  0
 10  4  1  0  0  0  0
 24 18  1  0  0  0  0
 56 31  1  0  0  0  0
 88 63  1  0  0  0  0
120 95  1  0  0  0  0
152127  1  0  0  0  0
 42 33  1  0  0  0  0
 60 43  1  0  0  0  0
 74 65  1  0  0  0  0
 92 75  1  0  0  0  0
106 97  1  0  0  0  0
124107  1  0  0  0  0
138129  1  0  0  0  0
156139  1  0  0  0  0
 54 46  1  0  0  0  0
 86 78  1  0  0  0  0
118110  1  0  0  0  0
150142  1  0  0  0  0
  1157  1  0  0  0  0
  6158  1  0  0  0  0
  7159  1  0  0  0  0
  7160  1  0  0  0  0
  7161  1  0  0  0  0
  8162  1  0  0  0  0
  8163  1  0  0  0  0
  9164  1  0  0  0  0
  9165  1  0  0  0  0
 10166  1  0  0  0  0
 11167  1  0  0  0  0
 12168  1  0  0  0  0
 12169  1  0  0  0  0
 13170  1  0  0  0  0
 14171  1  0  0  0  0
 20172  1  0  0  0  0
 21173  1  0  0  0  0
 21174  1  0  0  0  0
 21175  1  0  0  0  0
 22176  1  0  0  0  0
 22177  1  0  0  0  0
 23178  1  0  0  0  0
 23179  1  0  0  0  0
 24180  1  0  0  0  0
 25181  1  0  0  0  0
 26182  1  0  0  0  0
 26183  1  0  0  0  0
 27184  1  0  0  0  0
 28185  1  0  0  0  0
 30186  1  0  0  0  0
 34187  1  0  0  0  0
 35188  1  0  0  0  0
 38189  1  0  0  0  0
 38190  1  0  0  0  0
 39191  1  0  0  0  0
 39192  1  0  0  0  0
 39193  1  0  0  0  0
 42194  1  0  0  0  0
 47195  1  0  0  0  0
 48196  1  0  0  0  0
 51197  1  0  0  0  0
 51198  1  0  0  0  0
 52199  1  0  0  0  0
 52200  1  0  0  0  0
 52201  1  0  0  0  0
 54202  1  0  0  0  0
 58203  1  0  0  0  0
 62204  1  0  0  0  0
 66205  1  0  0  0  0
 67206  1  0  0  0  0
 70207  1  0  0  0  0
 70208  1  0  0  0  0
 71209  1  0  0  0  0
 71210  1  0  0  0  0
 71211  1  0  0  0  0
 74212  1  0  0  0  0
 79213  1  0  0  0  0
 80214  1  0  0  0  0
 83215  1  0  0  0  0
 83216  1  0  0  0  0
 84217  1  0  0  0  0
 84218  1  0  0  0  0
 84219  1  0  0  0  0
 86220  1  0  0  0  0
 90221  1  0  0  0  0
 94222  1  0  0  0  0
 98223  1  0  0  0  0
 99224  1  0  0  0  0
102225  1  0  0  0  0
102226  1  0  0  0  0
103227  1  0  0  0  0
103228  1  0  0  0  0
103229  1  0  0  0  0
106230  1  0  0  0  0
111231  1  0  0  0  0
112232  1  0  0  0  0
115233  1  0  0  0  0
115234  1  0  0  0  0
116235  1  0  0  0  0
116236  1  0  0  0  0
116237  1  0  0  0  0
118238  1  0  0  0  0
122239  1  0  0  0  0
126240  1  0  0  0  0
130241  1  0  0  0  0
131242  1  0  0  0  0
134243  1  0  0  0  0
134244  1  0  0  0  0
135245  1  0  0  0  0
135246  1  0  0  0  0
135247  1  0  0  0  0
138248  1  0  0  0  0
143249  1  0  0  0  0
144250  1  0  0  0  0
147251  1  0  0  0  0
147252  1  0  0  0  0
148253  1  0  0  0  0
148254  1  0  0  0  0
148255  1  0  0  0  0
150256  1  0  0  0  0
154257  1  0  0  0  0
155258  1  0  0  0  0
M  END
