
  xtb     03052201533D
 energy: -421.432415153879 gnorm: 0.000559898855 xtb: 6.4.1 (unknown)
240265  0     0  0            999 V2000
    3.5168   -4.0839    9.0561 C   0  0  0  0  0  0  0  0  0  0  0  0
    4.0944   -4.2167    7.8449 C   0  0  0  0  0  0  0  0  0  0  0  0
    3.2742   -3.7395    6.7804 C   0  0  0  0  0  0  0  0  0  0  0  0
    3.5497   -3.7343    5.4021 C   0  0  0  0  0  0  0  0  0  0  0  0
    4.7129   -4.4277    4.8386 C   0  0  0  0  0  0  0  0  0  0  0  0
    5.0538   -5.7047    5.2818 C   0  0  0  0  0  0  0  0  0  0  0  0
    6.1126   -6.4015    4.7336 C   0  0  0  0  0  0  0  0  0  0  0  0
    6.8748   -5.8498    3.7098 C   0  0  0  0  0  0  0  0  0  0  0  0
    8.2312   -6.6223    2.8960 S   0  0  0  0  0  0  0  0  0  0  0  0
    8.6194   -8.0683    3.9398 C   0  0  0  0  0  0  0  0  0  0  0  0
    9.2674   -7.6745    5.2537 C   0  0  0  0  0  0  0  0  0  0  0  0
    6.5075   -4.5815    3.2580 C   0  0  0  0  0  0  0  0  0  0  0  0
    7.1999   -4.0282    2.2422 F   0  0  0  0  0  0  0  0  0  0  0  0
    5.4613   -3.8726    3.8005 C   0  0  0  0  0  0  0  0  0  0  0  0
    2.6186   -3.0995    4.5885 C   0  0  0  0  0  0  0  0  0  0  0  0
    1.4023   -2.5694    5.0819 C   0  0  0  0  0  0  0  0  0  0  0  0
    1.0842   -2.6627    6.4463 C   0  0  0  0  0  0  0  0  0  0  0  0
   -0.2504   -2.2757    6.9200 C   0  0  0  0  0  0  0  0  0  0  0  0
   -1.3767   -2.7781    6.2660 C   0  0  0  0  0  0  0  0  0  0  0  0
   -2.6445   -2.4109    6.6603 C   0  0  0  0  0  0  0  0  0  0  0  0
   -2.8409   -1.5315    7.7216 C   0  0  0  0  0  0  0  0  0  0  0  0
   -4.5134   -1.1344    8.1618 S   0  0  0  0  0  0  0  0  0  0  0  0
   -4.4758    0.6914    8.2949 C   0  0  0  0  0  0  0  0  0  0  0  0
   -4.1871    1.3509    6.9608 C   0  0  0  0  0  0  0  0  0  0  0  0
   -1.7126   -1.0793    8.3985 C   0  0  0  0  0  0  0  0  0  0  0  0
   -0.4335   -1.4326    8.0101 C   0  0  0  0  0  0  0  0  0  0  0  0
   -1.8378   -0.2527    9.4593 F   0  0  0  0  0  0  0  0  0  0  0  0
    2.0556   -3.2072    7.2718 C   0  0  0  0  0  0  0  0  0  0  0  0
    1.9425   -3.3771    9.0006 S   0  0  0  0  0  0  0  0  0  0  0  0
    0.6028   -2.0195    4.0494 C   0  0  0  0  0  0  0  0  0  0  0  0
    1.1421   -2.1650    2.8062 C   0  0  0  0  0  0  0  0  0  0  0  0
    2.7117   -2.9347    2.8533 S   0  0  0  0  0  0  0  0  0  0  0  0
    0.5332   -1.8290    1.5606 C   0  0  0  0  0  0  0  0  0  0  0  0
   -0.7184   -1.3208    1.3697 C   0  0  0  0  0  0  0  0  0  0  0  0
   -1.0685   -1.1656    0.0061 C   0  0  0  0  0  0  0  0  0  0  0  0
   -2.2786   -0.6817   -0.5271 C   0  0  0  0  0  0  0  0  0  0  0  0
   -3.3286   -0.2258    0.3905 C   0  0  0  0  0  0  0  0  0  0  0  0
   -3.0106    0.6165    1.4575 C   0  0  0  0  0  0  0  0  0  0  0  0
   -3.9506    0.9231    2.4163 C   0  0  0  0  0  0  0  0  0  0  0  0
   -5.2515    0.4344    2.3332 C   0  0  0  0  0  0  0  0  0  0  0  0
   -6.3891    0.8697    3.6218 S   0  0  0  0  0  0  0  0  0  0  0  0
   -7.1686   -0.7323    4.0387 C   0  0  0  0  0  0  0  0  0  0  0  0
   -6.1564   -1.7294    4.5655 C   0  0  0  0  0  0  0  0  0  0  0  0
   -5.5801   -0.3286    1.2172 C   0  0  0  0  0  0  0  0  0  0  0  0
   -6.8398   -0.7806    1.0422 F   0  0  0  0  0  0  0  0  0  0  0  0
   -4.6392   -0.6763    0.2681 C   0  0  0  0  0  0  0  0  0  0  0  0
   -2.4046   -0.7207   -1.9079 C   0  0  0  0  0  0  0  0  0  0  0  0
   -1.3648   -1.1682   -2.7647 C   0  0  0  0  0  0  0  0  0  0  0  0
   -0.1439   -1.6218   -2.2344 C   0  0  0  0  0  0  0  0  0  0  0  0
    0.9932   -2.0534   -3.0536 C   0  0  0  0  0  0  0  0  0  0  0  0
    1.7020   -3.2107   -2.7373 C   0  0  0  0  0  0  0  0  0  0  0  0
    2.8605   -3.5540   -3.4055 C   0  0  0  0  0  0  0  0  0  0  0  0
    3.3651   -2.7413   -4.4144 C   0  0  0  0  0  0  0  0  0  0  0  0
    4.8590   -2.9870   -5.3006 S   0  0  0  0  0  0  0  0  0  0  0  0
    5.5909   -4.4959   -4.5888 C   0  0  0  0  0  0  0  0  0  0  0  0
    4.9811   -5.7600   -5.1634 C   0  0  0  0  0  0  0  0  0  0  0  0
    2.6213   -1.6069   -4.7482 C   0  0  0  0  0  0  0  0  0  0  0  0
    1.4550   -1.2644   -4.1063 C   0  0  0  0  0  0  0  0  0  0  0  0
    3.0886   -0.7950   -5.7214 F   0  0  0  0  0  0  0  0  0  0  0  0
   -0.0394   -1.6238   -0.8519 C   0  0  0  0  0  0  0  0  0  0  0  0
    1.3490   -2.1648    0.0537 S   0  0  0  0  0  0  0  0  0  0  0  0
   -1.7653   -1.1616   -4.1201 C   0  0  0  0  0  0  0  0  0  0  0  0
   -3.0503   -0.7395   -4.3238 C   0  0  0  0  0  0  0  0  0  0  0  0
   -3.8212   -0.2684   -2.8259 S   0  0  0  0  0  0  0  0  0  0  0  0
   -3.7064   -0.6881   -5.6025 C   0  0  0  0  0  0  0  0  0  0  0  0
   -5.0495   -0.7834   -5.8726 C   0  0  0  0  0  0  0  0  0  0  0  0
   -5.5899   -0.8176   -7.2614 C   0  0  0  0  0  0  0  0  0  0  0  0
   -4.7975   -0.6695   -8.4172 C   0  0  0  0  0  0  0  0  0  0  0  0
   -3.4579   -0.5466   -8.3605 C   0  0  0  0  0  0  0  0  0  0  0  0
   -2.5461   -0.5619   -6.9031 S   0  0  0  0  0  0  0  0  0  0  0  0
   -6.8852   -1.0221   -7.2994 N   0  0  0  0  0  0  0  0  0  0  0  0
   -7.2913   -1.1194   -6.0061 C   0  0  0  0  0  0  0  0  0  0  0  0
   -6.2200   -0.9686   -5.0948 C   0  0  0  0  0  0  0  0  0  0  0  0
   -6.7835   -1.0728   -3.4707 S   0  0  0  0  0  0  0  0  0  0  0  0
   -8.4533   -1.2388   -4.0244 C   0  0  0  0  0  0  0  0  0  0  0  0
   -8.5348   -1.2951   -5.3964 C   0  0  0  0  0  0  0  0  0  0  0  0
   -9.5110   -1.2216   -3.0622 C   0  0  0  0  0  0  0  0  0  0  0  0
  -10.7962   -0.8539   -3.2626 C   0  0  0  0  0  0  0  0  0  0  0  0
  -11.3892   -0.3182   -4.4681 C   0  0  0  0  0  0  0  0  0  0  0  0
  -10.8381    0.6233   -5.2974 C   0  0  0  0  0  0  0  0  0  0  0  0
  -11.2819    0.9115   -6.6806 C   0  0  0  0  0  0  0  0  0  0  0  0
  -12.5029    0.4098   -7.1763 C   0  0  0  0  0  0  0  0  0  0  0  0
  -13.3089   -0.3791   -6.4338 C   0  0  0  0  0  0  0  0  0  0  0  0
  -12.9507   -0.9893   -4.8572 S   0  0  0  0  0  0  0  0  0  0  0  0
  -10.4101    1.6341   -7.3524 N   0  0  0  0  0  0  0  0  0  0  0  0
   -9.3895    1.9086   -6.4866 C   0  0  0  0  0  0  0  0  0  0  0  0
   -9.6432    1.3606   -5.2091 C   0  0  0  0  0  0  0  0  0  0  0  0
   -8.4355    1.7650   -4.0765 S   0  0  0  0  0  0  0  0  0  0  0  0
   -7.4739    2.5012   -5.3582 C   0  0  0  0  0  0  0  0  0  0  0  0
   -8.1321    2.5256   -6.5690 C   0  0  0  0  0  0  0  0  0  0  0  0
   -6.1578    2.8135   -4.9309 C   0  0  0  0  0  0  0  0  0  0  0  0
   -5.0249    3.0045   -5.6422 C   0  0  0  0  0  0  0  0  0  0  0  0
   -3.7748    3.0334   -4.9472 C   0  0  0  0  0  0  0  0  0  0  0  0
   -3.5909    3.1570   -3.5995 C   0  0  0  0  0  0  0  0  0  0  0  0
   -2.2936    2.8213   -3.1572 C   0  0  0  0  0  0  0  0  0  0  0  0
   -1.8470    2.7623   -1.8278 C   0  0  0  0  0  0  0  0  0  0  0  0
   -2.6746    3.2664   -0.7225 C   0  0  0  0  0  0  0  0  0  0  0  0
   -3.9853    2.8470   -0.5069 C   0  0  0  0  0  0  0  0  0  0  0  0
   -4.7560    3.4348    0.4785 C   0  0  0  0  0  0  0  0  0  0  0  0
   -4.2436    4.4509    1.2718 C   0  0  0  0  0  0  0  0  0  0  0  0
   -5.2796    5.2885    2.4606 S   0  0  0  0  0  0  0  0  0  0  0  0
   -4.9317    4.2954    3.9581 C   0  0  0  0  0  0  0  0  0  0  0  0
   -3.4757    4.3451    4.3742 C   0  0  0  0  0  0  0  0  0  0  0  0
   -2.9271    4.8443    1.0666 C   0  0  0  0  0  0  0  0  0  0  0  0
   -2.3886    5.8280    1.8098 F   0  0  0  0  0  0  0  0  0  0  0  0
   -2.1413    4.2589    0.0946 C   0  0  0  0  0  0  0  0  0  0  0  0
   -0.5668    2.2756   -1.6361 C   0  0  0  0  0  0  0  0  0  0  0  0
    0.3056    1.9525   -2.7034 C   0  0  0  0  0  0  0  0  0  0  0  0
   -0.0953    2.1523   -4.0411 C   0  0  0  0  0  0  0  0  0  0  0  0
    0.8746    2.0257   -5.1354 C   0  0  0  0  0  0  0  0  0  0  0  0
    0.5770    1.3827   -6.3365 C   0  0  0  0  0  0  0  0  0  0  0  0
    1.5191    1.2861   -7.3381 C   0  0  0  0  0  0  0  0  0  0  0  0
    2.7994    1.8127   -7.1874 C   0  0  0  0  0  0  0  0  0  0  0  0
    3.9526    1.5595   -8.5013 S   0  0  0  0  0  0  0  0  0  0  0  0
    4.8194    3.1701   -8.6320 C   0  0  0  0  0  0  0  0  0  0  0  0
    3.8588    4.3102   -8.9045 C   0  0  0  0  0  0  0  0  0  0  0  0
    3.0887    2.4422   -5.9813 C   0  0  0  0  0  0  0  0  0  0  0  0
    2.1486    2.5707   -4.9812 C   0  0  0  0  0  0  0  0  0  0  0  0
    4.3194    2.9504   -5.7405 F   0  0  0  0  0  0  0  0  0  0  0  0
   -1.4241    2.5054   -4.2327 C   0  0  0  0  0  0  0  0  0  0  0  0
   -2.2643    2.6537   -5.7587 S   0  0  0  0  0  0  0  0  0  0  0  0
    1.5207    1.3986   -2.2298 C   0  0  0  0  0  0  0  0  0  0  0  0
    1.5892    1.2984   -0.8714 C   0  0  0  0  0  0  0  0  0  0  0  0
    0.1583    1.9313   -0.0891 S   0  0  0  0  0  0  0  0  0  0  0  0
    2.6808    0.7934   -0.1057 C   0  0  0  0  0  0  0  0  0  0  0  0
    3.8266    0.2322   -0.5841 C   0  0  0  0  0  0  0  0  0  0  0  0
    4.7821   -0.0547    0.4231 C   0  0  0  0  0  0  0  0  0  0  0  0
    6.0774   -0.5692    0.2533 C   0  0  0  0  0  0  0  0  0  0  0  0
    6.6010   -0.8421   -1.0896 C   0  0  0  0  0  0  0  0  0  0  0  0
    6.4697    0.1046   -2.1040 C   0  0  0  0  0  0  0  0  0  0  0  0
    6.9111   -0.1481   -3.3870 C   0  0  0  0  0  0  0  0  0  0  0  0
    7.5111   -1.3609   -3.7054 C   0  0  0  0  0  0  0  0  0  0  0  0
    8.0932   -1.8055   -5.3067 S   0  0  0  0  0  0  0  0  0  0  0  0
    7.2464   -0.6410   -6.4310 C   0  0  0  0  0  0  0  0  0  0  0  0
    8.0444    0.6233   -6.6874 C   0  0  0  0  0  0  0  0  0  0  0  0
    7.6712   -2.2850   -2.6708 C   0  0  0  0  0  0  0  0  0  0  0  0
    8.2580   -3.4714   -2.9416 F   0  0  0  0  0  0  0  0  0  0  0  0
    7.2289   -2.0500   -1.3879 C   0  0  0  0  0  0  0  0  0  0  0  0
    6.8257   -0.7534    1.4081 C   0  0  0  0  0  0  0  0  0  0  0  0
    6.3390   -0.4527    2.7061 C   0  0  0  0  0  0  0  0  0  0  0  0
    5.0415    0.0606    2.8758 C   0  0  0  0  0  0  0  0  0  0  0  0
    4.4674    0.3870    4.1867 C   0  0  0  0  0  0  0  0  0  0  0  0
    3.7625    1.5764    4.3644 C   0  0  0  0  0  0  0  0  0  0  0  0
    3.0906    1.8500    5.5376 C   0  0  0  0  0  0  0  0  0  0  0  0
    3.1070    0.9439    6.5909 C   0  0  0  0  0  0  0  0  0  0  0  0
    2.2105    1.1232    8.0960 S   0  0  0  0  0  0  0  0  0  0  0  0
    0.9507    2.3838    7.6994 C   0  0  0  0  0  0  0  0  0  0  0  0
   -0.0463    1.9153    6.6563 C   0  0  0  0  0  0  0  0  0  0  0  0
    3.9038   -0.1902    6.4421 C   0  0  0  0  0  0  0  0  0  0  0  0
    4.5626   -0.4855    5.2700 C   0  0  0  0  0  0  0  0  0  0  0  0
    4.0306   -1.0355    7.4868 F   0  0  0  0  0  0  0  0  0  0  0  0
    4.3022    0.2621    1.7168 C   0  0  0  0  0  0  0  0  0  0  0  0
    2.6867    0.9221    1.6395 S   0  0  0  0  0  0  0  0  0  0  0  0
    7.3445   -0.6612    3.6959 C   0  0  0  0  0  0  0  0  0  0  0  0
    8.5128   -1.0918    3.1753 C   0  0  0  0  0  0  0  0  0  0  0  0
    8.4869   -1.2745    1.4598 S   0  0  0  0  0  0  0  0  0  0  0  0
    3.9244   -4.3513   10.0114 H   0  0  0  0  0  0  0  0  0  0  0  0
    5.0857   -4.6061    7.7005 H   0  0  0  0  0  0  0  0  0  0  0  0
    4.4580   -6.1775    6.0476 H   0  0  0  0  0  0  0  0  0  0  0  0
    6.3265   -7.3917    5.1016 H   0  0  0  0  0  0  0  0  0  0  0  0
    7.7105   -8.6521    4.0796 H   0  0  0  0  0  0  0  0  0  0  0  0
    9.3104   -8.6460    3.3259 H   0  0  0  0  0  0  0  0  0  0  0  0
    8.6031   -7.0498    5.8470 H   0  0  0  0  0  0  0  0  0  0  0  0
    9.5120   -8.5661    5.8279 H   0  0  0  0  0  0  0  0  0  0  0  0
   10.1835   -7.1189    5.0673 H   0  0  0  0  0  0  0  0  0  0  0  0
    5.2502   -2.8907    3.4076 H   0  0  0  0  0  0  0  0  0  0  0  0
   -1.2514   -3.4718    5.4485 H   0  0  0  0  0  0  0  0  0  0  0  0
   -3.5113   -2.8000    6.1488 H   0  0  0  0  0  0  0  0  0  0  0  0
   -5.4743    0.9452    8.6497 H   0  0  0  0  0  0  0  0  0  0  0  0
   -3.7492    0.9709    9.0543 H   0  0  0  0  0  0  0  0  0  0  0  0
   -3.2113    1.0494    6.5819 H   0  0  0  0  0  0  0  0  0  0  0  0
   -4.1947    2.4321    7.0850 H   0  0  0  0  0  0  0  0  0  0  0  0
   -4.9422    1.0851    6.2239 H   0  0  0  0  0  0  0  0  0  0  0  0
    0.4081   -1.0345    8.5557 H   0  0  0  0  0  0  0  0  0  0  0  0
   -0.3405   -1.5379    4.2295 H   0  0  0  0  0  0  0  0  0  0  0  0
   -1.3826   -1.0930    2.1815 H   0  0  0  0  0  0  0  0  0  0  0  0
   -2.0178    1.0328    1.5308 H   0  0  0  0  0  0  0  0  0  0  0  0
   -3.6848    1.5378    3.2618 H   0  0  0  0  0  0  0  0  0  0  0  0
   -7.8989   -0.4702    4.8039 H   0  0  0  0  0  0  0  0  0  0  0  0
   -7.6927   -1.1032    3.1608 H   0  0  0  0  0  0  0  0  0  0  0  0
   -5.3977   -1.9444    3.8137 H   0  0  0  0  0  0  0  0  0  0  0  0
   -5.6664   -1.3447    5.4576 H   0  0  0  0  0  0  0  0  0  0  0  0
   -6.6611   -2.6584    4.8234 H   0  0  0  0  0  0  0  0  0  0  0  0
   -4.9424   -1.3103   -0.5505 H   0  0  0  0  0  0  0  0  0  0  0  0
    1.3339   -3.8702   -1.9669 H   0  0  0  0  0  0  0  0  0  0  0  0
    3.3759   -4.4557   -3.1194 H   0  0  0  0  0  0  0  0  0  0  0  0
    6.6453   -4.4210   -4.8549 H   0  0  0  0  0  0  0  0  0  0  0  0
    5.5025   -4.4389   -3.5050 H   0  0  0  0  0  0  0  0  0  0  0  0
    5.4695   -6.6307   -4.7305 H   0  0  0  0  0  0  0  0  0  0  0  0
    5.1191   -5.7854   -6.2418 H   0  0  0  0  0  0  0  0  0  0  0  0
    3.9147   -5.8181   -4.9543 H   0  0  0  0  0  0  0  0  0  0  0  0
    0.9365   -0.3681   -4.4016 H   0  0  0  0  0  0  0  0  0  0  0  0
   -1.1344   -1.5206   -4.9135 H   0  0  0  0  0  0  0  0  0  0  0  0
   -5.3087   -0.6714   -9.3676 H   0  0  0  0  0  0  0  0  0  0  0  0
   -2.8337   -0.4416   -9.2319 H   0  0  0  0  0  0  0  0  0  0  0  0
   -9.4435   -1.4644   -5.9417 H   0  0  0  0  0  0  0  0  0  0  0  0
   -9.2297   -1.5282   -2.0629 H   0  0  0  0  0  0  0  0  0  0  0  0
  -11.4965   -1.0237   -2.4540 H   0  0  0  0  0  0  0  0  0  0  0  0
  -12.7937    0.6842   -8.1789 H   0  0  0  0  0  0  0  0  0  0  0  0
  -14.2574   -0.7412   -6.7946 H   0  0  0  0  0  0  0  0  0  0  0  0
   -7.7169    2.9514   -7.4632 H   0  0  0  0  0  0  0  0  0  0  0  0
   -6.0550    2.7509   -3.8551 H   0  0  0  0  0  0  0  0  0  0  0  0
   -5.0207    3.0184   -6.7216 H   0  0  0  0  0  0  0  0  0  0  0  0
   -4.3632    3.4682   -2.9230 H   0  0  0  0  0  0  0  0  0  0  0  0
   -4.3999    2.0508   -1.1065 H   0  0  0  0  0  0  0  0  0  0  0  0
   -5.7772    3.1218    0.6324 H   0  0  0  0  0  0  0  0  0  0  0  0
   -5.2709    3.2776    3.7654 H   0  0  0  0  0  0  0  0  0  0  0  0
   -5.5717    4.7449    4.7162 H   0  0  0  0  0  0  0  0  0  0  0  0
   -3.1490    5.3761    4.4884 H   0  0  0  0  0  0  0  0  0  0  0  0
   -3.3465    3.8280    5.3232 H   0  0  0  0  0  0  0  0  0  0  0  0
   -2.8405    3.8639    3.6322 H   0  0  0  0  0  0  0  0  0  0  0  0
   -1.1310    4.6109   -0.0462 H   0  0  0  0  0  0  0  0  0  0  0  0
   -0.3934    0.9357   -6.4797 H   0  0  0  0  0  0  0  0  0  0  0  0
    1.2810    0.7794   -8.2598 H   0  0  0  0  0  0  0  0  0  0  0  0
    5.4991    3.0211   -9.4710 H   0  0  0  0  0  0  0  0  0  0  0  0
    5.4018    3.3376   -7.7287 H   0  0  0  0  0  0  0  0  0  0  0  0
    4.4161    5.2334   -9.0500 H   0  0  0  0  0  0  0  0  0  0  0  0
    3.1754    4.4491   -8.0687 H   0  0  0  0  0  0  0  0  0  0  0  0
    3.2733    4.1099   -9.7992 H   0  0  0  0  0  0  0  0  0  0  0  0
    2.4206    3.1027   -4.0826 H   0  0  0  0  0  0  0  0  0  0  0  0
    2.3091    1.0557   -2.8729 H   0  0  0  0  0  0  0  0  0  0  0  0
    3.9816    0.0165   -1.6245 H   0  0  0  0  0  0  0  0  0  0  0  0
    6.0389    1.0689   -1.8796 H   0  0  0  0  0  0  0  0  0  0  0  0
    6.7821    0.6112   -4.1405 H   0  0  0  0  0  0  0  0  0  0  0  0
    7.1252   -1.2087   -7.3534 H   0  0  0  0  0  0  0  0  0  0  0  0
    6.2580   -0.4411   -6.0218 H   0  0  0  0  0  0  0  0  0  0  0  0
    8.2219    1.1781   -5.7688 H   0  0  0  0  0  0  0  0  0  0  0  0
    7.4975    1.2612   -7.3792 H   0  0  0  0  0  0  0  0  0  0  0  0
    9.0087    0.3788   -7.1275 H   0  0  0  0  0  0  0  0  0  0  0  0
    7.3552   -2.8148   -0.6374 H   0  0  0  0  0  0  0  0  0  0  0  0
    3.7485    2.3128    3.5765 H   0  0  0  0  0  0  0  0  0  0  0  0
    2.5570    2.7822    5.6257 H   0  0  0  0  0  0  0  0  0  0  0  0
    0.4566    2.5548    8.6558 H   0  0  0  0  0  0  0  0  0  0  0  0
    1.4589    3.3009    7.4035 H   0  0  0  0  0  0  0  0  0  0  0  0
    0.4479    1.6645    5.7197 H   0  0  0  0  0  0  0  0  0  0  0  0
   -0.7718    2.7042    6.4652 H   0  0  0  0  0  0  0  0  0  0  0  0
   -0.5717    1.0314    7.0097 H   0  0  0  0  0  0  0  0  0  0  0  0
    5.1196   -1.4061    5.2085 H   0  0  0  0  0  0  0  0  0  0  0  0
    7.1973   -0.4684    4.7430 H   0  0  0  0  0  0  0  0  0  0  0  0
    9.4190   -1.3205    3.7015 H   0  0  0  0  0  0  0  0  0  0  0  0
  1  2  2  0  0  0  0
  2  3  1  0  0  0  0
  3  4  2  0  0  0  0
  4  5  1  0  0  0  0
  5  6  2  0  0  0  0
  6  7  1  0  0  0  0
  7  8  2  0  0  0  0
  8  9  1  0  0  0  0
  9 10  1  0  0  0  0
 10 11  1  0  0  0  0
  8 12  1  0  0  0  0
 12 13  1  0  0  0  0
 12 14  2  0  0  0  0
  4 15  1  0  0  0  0
 15 16  2  0  0  0  0
 16 17  1  0  0  0  0
 17 18  1  0  0  0  0
 18 19  2  0  0  0  0
 19 20  1  0  0  0  0
 20 21  2  0  0  0  0
 21 22  1  0  0  0  0
 22 23  1  0  0  0  0
 23 24  1  0  0  0  0
 21 25  1  0  0  0  0
 25 26  2  0  0  0  0
 25 27  1  0  0  0  0
 17 28  2  0  0  0  0
 28 29  1  0  0  0  0
 16 30  1  0  0  0  0
 30 31  2  0  0  0  0
 31 32  1  0  0  0  0
 31 33  1  0  0  0  0
 33 34  2  0  0  0  0
 34 35  1  0  0  0  0
 35 36  2  0  0  0  0
 36 37  1  0  0  0  0
 37 38  2  0  0  0  0
 38 39  1  0  0  0  0
 39 40  2  0  0  0  0
 40 41  1  0  0  0  0
 41 42  1  0  0  0  0
 42 43  1  0  0  0  0
 40 44  1  0  0  0  0
 44 45  1  0  0  0  0
 44 46  2  0  0  0  0
 36 47  1  0  0  0  0
 47 48  2  0  0  0  0
 48 49  1  0  0  0  0
 49 50  1  0  0  0  0
 50 51  2  0  0  0  0
 51 52  1  0  0  0  0
 52 53  2  0  0  0  0
 53 54  1  0  0  0  0
 54 55  1  0  0  0  0
 55 56  1  0  0  0  0
 53 57  1  0  0  0  0
 57 58  2  0  0  0  0
 57 59  1  0  0  0  0
 49 60  2  0  0  0  0
 60 61  1  0  0  0  0
 48 62  1  0  0  0  0
 62 63  2  0  0  0  0
 63 64  1  0  0  0  0
 63 65  1  0  0  0  0
 65 66  2  0  0  0  0
 66 67  1  0  0  0  0
 67 68  1  0  0  0  0
 68 69  2  0  0  0  0
 69 70  1  0  0  0  0
 67 71  2  0  0  0  0
 71 72  1  0  0  0  0
 72 73  2  0  0  0  0
 73 74  1  0  0  0  0
 74 75  1  0  0  0  0
 75 76  2  0  0  0  0
 75 77  1  0  0  0  0
 77 78  2  0  0  0  0
 78 79  1  0  0  0  0
 79 80  2  0  0  0  0
 80 81  1  0  0  0  0
 81 82  1  0  0  0  0
 82 83  2  0  0  0  0
 83 84  1  0  0  0  0
 81 85  2  0  0  0  0
 85 86  1  0  0  0  0
 86 87  2  0  0  0  0
 87 88  1  0  0  0  0
 88 89  1  0  0  0  0
 89 90  2  0  0  0  0
 89 91  1  0  0  0  0
 91 92  2  0  0  0  0
 92 93  1  0  0  0  0
 93 94  2  0  0  0  0
 94 95  1  0  0  0  0
 95 96  2  0  0  0  0
 96 97  1  0  0  0  0
 97 98  2  0  0  0  0
 98 99  1  0  0  0  0
 99100  2  0  0  0  0
100101  1  0  0  0  0
101102  1  0  0  0  0
102103  1  0  0  0  0
100104  1  0  0  0  0
104105  1  0  0  0  0
104106  2  0  0  0  0
 96107  1  0  0  0  0
107108  2  0  0  0  0
108109  1  0  0  0  0
109110  1  0  0  0  0
110111  2  0  0  0  0
111112  1  0  0  0  0
112113  2  0  0  0  0
113114  1  0  0  0  0
114115  1  0  0  0  0
115116  1  0  0  0  0
113117  1  0  0  0  0
117118  2  0  0  0  0
117119  1  0  0  0  0
109120  2  0  0  0  0
120121  1  0  0  0  0
108122  1  0  0  0  0
122123  2  0  0  0  0
123124  1  0  0  0  0
123125  1  0  0  0  0
125126  2  0  0  0  0
126127  1  0  0  0  0
127128  2  0  0  0  0
128129  1  0  0  0  0
129130  2  0  0  0  0
130131  1  0  0  0  0
131132  2  0  0  0  0
132133  1  0  0  0  0
133134  1  0  0  0  0
134135  1  0  0  0  0
132136  1  0  0  0  0
136137  1  0  0  0  0
136138  2  0  0  0  0
128139  1  0  0  0  0
139140  2  0  0  0  0
140141  1  0  0  0  0
141142  1  0  0  0  0
142143  2  0  0  0  0
143144  1  0  0  0  0
144145  2  0  0  0  0
145146  1  0  0  0  0
146147  1  0  0  0  0
147148  1  0  0  0  0
145149  1  0  0  0  0
149150  2  0  0  0  0
149151  1  0  0  0  0
141152  2  0  0  0  0
152153  1  0  0  0  0
140154  1  0  0  0  0
154155  2  0  0  0  0
155156  1  0  0  0  0
 29  1  1  0  0  0  0
 61 33  1  0  0  0  0
 70 65  1  0  0  0  0
 76 72  1  0  0  0  0
 84 79  1  0  0  0  0
 90 86  1  0  0  0  0
121 93  1  0  0  0  0
153125  1  0  0  0  0
 28  3  1  0  0  0  0
 60 35  1  0  0  0  0
 73 66  1  0  0  0  0
 87 80  1  0  0  0  0
120 95  1  0  0  0  0
152127  1  0  0  0  0
 14  5  1  0  0  0  0
 32 15  1  0  0  0  0
 46 37  1  0  0  0  0
 64 47  1  0  0  0  0
106 97  1  0  0  0  0
124107  1  0  0  0  0
138129  1  0  0  0  0
156139  1  0  0  0  0
 26 18  1  0  0  0  0
 58 50  1  0  0  0  0
118110  1  0  0  0  0
150142  1  0  0  0  0
  1157  1  0  0  0  0
  2158  1  0  0  0  0
  6159  1  0  0  0  0
  7160  1  0  0  0  0
 10161  1  0  0  0  0
 10162  1  0  0  0  0
 11163  1  0  0  0  0
 11164  1  0  0  0  0
 11165  1  0  0  0  0
 14166  1  0  0  0  0
 19167  1  0  0  0  0
 20168  1  0  0  0  0
 23169  1  0  0  0  0
 23170  1  0  0  0  0
 24171  1  0  0  0  0
 24172  1  0  0  0  0
 24173  1  0  0  0  0
 26174  1  0  0  0  0
 30175  1  0  0  0  0
 34176  1  0  0  0  0
 38177  1  0  0  0  0
 39178  1  0  0  0  0
 42179  1  0  0  0  0
 42180  1  0  0  0  0
 43181  1  0  0  0  0
 43182  1  0  0  0  0
 43183  1  0  0  0  0
 46184  1  0  0  0  0
 51185  1  0  0  0  0
 52186  1  0  0  0  0
 55187  1  0  0  0  0
 55188  1  0  0  0  0
 56189  1  0  0  0  0
 56190  1  0  0  0  0
 56191  1  0  0  0  0
 58192  1  0  0  0  0
 62193  1  0  0  0  0
 68194  1  0  0  0  0
 69195  1  0  0  0  0
 76196  1  0  0  0  0
 77197  1  0  0  0  0
 78198  1  0  0  0  0
 82199  1  0  0  0  0
 83200  1  0  0  0  0
 90201  1  0  0  0  0
 91202  1  0  0  0  0
 92203  1  0  0  0  0
 94204  1  0  0  0  0
 98205  1  0  0  0  0
 99206  1  0  0  0  0
102207  1  0  0  0  0
102208  1  0  0  0  0
103209  1  0  0  0  0
103210  1  0  0  0  0
103211  1  0  0  0  0
106212  1  0  0  0  0
111213  1  0  0  0  0
112214  1  0  0  0  0
115215  1  0  0  0  0
115216  1  0  0  0  0
116217  1  0  0  0  0
116218  1  0  0  0  0
116219  1  0  0  0  0
118220  1  0  0  0  0
122221  1  0  0  0  0
126222  1  0  0  0  0
130223  1  0  0  0  0
131224  1  0  0  0  0
134225  1  0  0  0  0
134226  1  0  0  0  0
135227  1  0  0  0  0
135228  1  0  0  0  0
135229  1  0  0  0  0
138230  1  0  0  0  0
143231  1  0  0  0  0
144232  1  0  0  0  0
147233  1  0  0  0  0
147234  1  0  0  0  0
148235  1  0  0  0  0
148236  1  0  0  0  0
148237  1  0  0  0  0
150238  1  0  0  0  0
154239  1  0  0  0  0
155240  1  0  0  0  0
M  END
