225

C         -2.15550       -9.45010       12.16560
C         -3.19460       -8.74680       11.67210
C         -3.41210       -8.98160       10.28290
C         -4.35560       -8.37570        9.43810
C         -5.35810       -7.45950        9.95640
S         -5.58050       -5.87550        9.27620
C         -6.86140       -5.49850       10.37640
C         -7.51710       -4.16200       10.36640
C         -6.70540       -3.14650       11.17420
C         -7.08940       -6.54710       11.21710
Cl        -8.28820       -6.54740       12.44530
C         -6.24210       -7.66230       10.97970
Cl        -6.38700       -9.13540       11.84920
C         -4.27800       -8.68090        8.08540
C         -3.33630       -9.59700        7.55810
C         -2.41280      -10.23140        8.40730
C         -1.41820      -11.15040        7.87940
S         -0.39550      -10.69030        6.54700
C          0.43320      -12.20960        6.55110
C          1.54300      -12.47990        5.59600
C          2.84780      -11.83730        6.07180
C         -0.05480      -13.00970        7.54010
C         -1.10490      -12.41560        8.29260
Cl        -1.93860      -13.26300        9.52630
Cl         0.51590      -14.59670        7.85660
C         -2.46990       -9.89860        9.75600
S         -1.37060      -10.44470       10.98970
C         -3.47410       -9.74510        6.15770
C         -4.45270       -8.96100        5.61900
S         -5.29310       -8.02350        6.83300
C         -4.72380       -8.79830        4.22650
C         -4.16880       -9.51660        3.20590
C         -4.46460       -9.00300        1.92230
C         -3.99410       -9.45960        0.67500
C         -3.10070      -10.60010        0.57350
S         -1.69170      -10.73530        1.58810
C         -1.20030      -12.22530        0.85480
C          0.02080      -12.94240        1.31720
C          1.25020      -12.03570        1.31450
C         -2.08250      -12.57950       -0.12090
Cl        -1.94220      -13.99960       -1.07410
C         -3.15790      -11.66340       -0.28490
Cl        -4.43220      -11.94580       -1.39410
C         -4.36220       -8.72050       -0.44280
C         -5.19600       -7.57860       -0.35950
C         -5.69870       -7.14610        0.87990
C         -6.52120       -5.94860        0.95790
S         -7.99310       -5.81820        0.04180
C         -8.28760       -4.20290        0.59380
C         -9.47310       -3.43610        0.12140
C         -9.46010       -3.27050       -1.39830
C         -7.29410       -3.80650        1.43720
C         -6.29300       -4.79340        1.65040
Cl        -4.90470       -4.50260        2.61270
Cl        -7.22450       -2.26330        2.18290
C         -5.30700       -7.86430        1.99880
S         -5.71980       -7.48530        3.64510
C         -5.27710       -6.89400       -1.59030
C         -4.51630       -7.44780       -2.58240
S         -3.74190       -8.92900       -2.06070
C         -4.20750       -6.79130       -3.80600
S         -4.64800       -5.11440       -3.92920
C         -3.67740       -4.90970       -5.35630
C         -3.13150       -6.11450       -5.76760
C         -3.42480       -7.17970       -4.87850
S         -2.90050       -8.84940       -5.00800
C         -1.51830       -8.67880       -6.18520
C         -1.97210       -7.99480       -7.45310
S         -2.13860       -6.19570       -7.21370
C         -3.39270       -3.57120       -5.75090
C         -2.39090       -3.08380       -6.54130
C         -2.17070       -1.69390       -6.37380
C         -1.11880       -0.91700       -6.89100
C         -0.11120       -1.49060       -7.76920
S          0.23820       -0.78110       -9.31650
C          1.44370       -1.96810       -9.67590
C          2.23730       -1.90870      -10.93420
C          3.48320       -1.03890      -10.74840
C          1.56700       -2.84630       -8.64100
Cl         2.66770       -4.16220       -8.63000
C          0.68680       -2.58050       -7.55860
Cl         0.70870       -3.49830       -6.10840
C         -1.03390        0.39910       -6.45600
C         -1.96200        0.97380       -5.55440
C         -3.05740        0.22070       -5.09110
C         -4.03020        0.79490       -4.18030
S         -4.50200       -0.03030       -2.72330
C         -5.57190        1.24670       -2.25080
C         -6.36130        1.15280       -0.99160
C         -7.24080       -0.09670       -0.97350
C         -5.55840        2.24290       -3.18090
C         -4.68540        1.99270       -4.27430
Cl        -4.55470        3.06830       -5.60650
Cl        -6.48780        3.68230       -3.06670
C         -3.10410       -1.10890       -5.48190
S         -4.23290       -2.28970       -4.89180
C         -1.54230        2.24520       -5.10350
C         -0.34610        2.64480       -5.62750
S          0.29480        1.48180       -6.76840
C          0.40560        3.78690       -5.21850
C          0.04160        4.68850       -4.25920
C          1.05950        5.61370       -3.93540
C          1.01030        6.63870       -2.97310
C         -0.22830        6.95550       -2.28610
S         -0.29670        7.10470       -0.55490
C         -1.99520        7.43420       -0.57140
C         -2.73280        7.72870        0.68750
C         -2.53680        9.18870        1.10280
C         -2.46510        7.44140       -1.85110
Cl        -4.10350        7.73440       -2.27010
C         -1.46860        7.16730       -2.82580
Cl        -1.80340        7.19530       -4.50980
C          2.19890        7.30590       -2.71060
C          3.39780        7.03590       -3.41410
C          3.42750        6.06380       -4.43190
C          4.65420        5.81210       -5.17130
S          5.50470        7.11730       -5.94940
C          6.76300        6.07160       -6.51170
C          7.88620        6.59270       -7.33810
C          7.47870        6.71030       -8.80840
C          6.51660        4.78860       -6.12440
C          5.32730        4.63720       -5.36050
Cl         4.86870        3.13460       -4.67580
Cl         7.54390        3.46420       -6.49320
C          2.25240        5.36200       -4.66080
S          2.03050        4.06640       -5.80130
C          4.47970        7.80180       -2.92190
C          4.13710        8.63810       -1.89900
S          2.43590        8.53850       -1.50460
C          5.02200        9.49700       -1.18000
C          6.37420        9.57850       -1.34410
C          6.99110       10.52820       -0.49670
C          8.35950       10.83320       -0.39920
C          9.31620       10.21860       -1.30280
S         10.73420        9.40480       -0.71040
C         11.23080        8.94240       -2.30210
C         12.43870        8.10020       -2.52090
C         12.09790        6.61310       -2.39480
C         10.33990        9.39940       -3.22710
Cl        10.48840        9.12730       -4.91460
C          9.25820       10.12970       -2.66770
Cl         8.05970       10.88350       -3.64160
C          8.73300       11.72390        0.59920
C          7.80180       12.33900        1.46960
C          6.43030       12.06550        1.34350
C          5.44280       12.67080        2.22290
S          5.57160       12.53430        3.95220
C          4.09150       13.39280        4.21070
C          3.54530       13.59840        5.58030
C          2.69700       12.40050        6.01480
C          3.54000       13.75270        3.01770
C          4.30290       13.34780        1.88910
Cl         3.85720       13.75390        0.28510
Cl         2.06850       14.62220        2.86900
C          6.05500       11.16040        0.35780
S          4.44000       10.58570        0.05780
C          8.44460       13.23260        2.37580
C          9.78060       13.28430        2.20140
S         10.35520       12.26320        0.92900
H         -1.78150       -9.45470       13.17080
H         -3.78420       -8.06600       12.25740
H         -7.61170       -3.81380        9.33650
H         -8.51520       -4.25860       10.79750
H         -6.61210       -3.47390       12.20660
H         -5.70940       -3.03870       10.75140
H         -7.19830       -2.17820       11.15910
H          1.28090      -12.07900        4.61500
H          1.67500      -13.56010        5.51190
H          3.64660      -12.04610        5.36530
H          3.13030      -12.23260        7.04410
H          2.72780      -10.75990        6.15570
H         -2.85280      -10.39010        5.56660
H         -3.55290      -10.37910        3.37260
H          0.18340      -13.79920        0.66140
H         -0.14670      -13.31850        2.33110
H          2.12130      -12.58470        1.66250
H          1.09030      -11.17970        1.96660
H          1.44840      -11.67040        0.31010
H         -9.46530       -2.45840        0.60530
H        -10.38610       -3.95910        0.41770
H        -10.32070       -2.68920       -1.71760
H         -8.55580       -2.75850       -1.71610
H         -9.49670       -4.24330       -1.88280
H         -5.82790       -5.98130       -1.72900
H         -1.19900       -9.70170       -6.38350
H         -0.70860       -8.13080       -5.70240
H         -1.22650       -8.09270       -8.24250
H         -2.92510       -8.39450       -7.80110
H         -1.78710       -3.70260       -7.17600
H          1.61970       -1.49470      -11.73270
H          2.53670       -2.92170      -11.21060
H          4.05340       -1.00120      -11.67260
H          4.11530       -1.44910       -9.96490
H          3.19850       -0.02700      -10.47030
H         -5.67910        1.12020       -0.13790
H         -6.97770        2.04890       -0.90330
H         -7.94240       -0.07770       -1.80400
H         -6.62410       -0.98900       -1.05570
H         -7.79980       -0.14570       -0.04320
H         -2.07890        2.81320       -4.36800
H         -0.90950        4.66550       -3.76270
H         -2.37070        7.07410        1.48240
H         -3.79400        7.53120        0.52610
H         -3.07530        9.39020        2.02480
H         -1.48120        9.39670        1.26030
H         -2.91020        9.85390        0.32840
H          8.73310        5.91020       -7.24550
H          8.18570        7.57380       -6.96490
H          6.63760        7.39160       -8.91320
H          7.18920        5.73750       -9.19810
H          8.31020        7.08870       -9.39660
H          5.47940        7.72330       -3.30440
H          6.91890        8.95960       -2.03060
H         12.83170        8.30120       -3.51930
H         13.20020        8.36210       -1.78470
H         11.70850        6.39840       -1.40250
H         11.34810        6.33400       -3.13080
H         12.98770        6.01140       -2.55870
H          2.93020       14.50020        5.58020
H          4.36890       13.73470        6.28310
H          3.29890       11.49500        6.02350
H          1.86630       12.25910        5.32820
H          2.30060       12.56660        7.01270
H          7.91770       13.80680        3.11530
H         10.49330       13.87150        2.74660
