209

C         13.47290       -7.21760        3.12560
C         13.43470       -6.29110        4.10380
C         12.14890       -5.68890        4.25140
C         11.74870       -4.71070        5.17440
C         12.69200       -4.10550        6.12250
C         12.39640       -4.04890        7.48070
C         13.27410       -3.48020        8.38350
C         14.48080       -2.93840        7.95520
S         15.68930       -2.18720        8.98840
C         14.93190       -2.26070       10.65470
C         15.87410       -1.60050       11.64370
C         14.76140       -2.99630        6.58790
F         15.92110       -2.47490        6.13770
C         13.89840       -3.56550        5.68010
C         10.41290       -4.33850        5.14410
C          9.47470       -4.90060        4.24800
C          9.87690       -5.86790        3.31330
C          8.91040       -6.40360        2.34770
C          9.16300       -6.35940        0.97810
C          8.20390       -6.76610        0.07610
C          6.95520       -7.22530        0.49510
S          5.77710       -7.57660       -0.77410
C          4.74200       -8.94020       -0.13270
C          5.56420      -10.16950        0.19290
C          6.72620       -7.28620        1.86580
C          7.68510       -6.90030        2.78000
F          5.54170       -7.71110        2.36180
C         11.21500       -6.23010        3.33450
S         11.95930       -7.43310        2.31260
C          8.19210       -4.32190        4.40280
C          8.11100       -3.37140        5.37960
S          9.67470       -3.10460        6.13380
C          6.92340       -2.59460        5.60320
S          6.05130       -2.27050        4.14430
C          4.81970       -1.37840        4.95620
C          5.04830       -1.35260        6.33150
C          6.25780       -2.05480        6.70670
C          6.58270       -2.20060        8.08550
C          7.74410       -3.01090        8.56330
C          5.76230       -1.60800        9.00470
C          4.59140       -0.92770        8.63890
C          4.19520       -0.81350        7.33600
C          2.87870       -0.18110        7.01950
C          3.79420       -0.87510        4.08260
C          3.23810       -1.59630        3.06730
C          2.32610       -0.86360        2.26790
C          1.53620       -1.33630        1.20880
C          1.65660       -2.70670        0.69200
C          2.88860       -3.21480        0.28460
C          2.98480       -4.47460       -0.27320
C          1.85400       -5.26530       -0.44090
S          1.90940       -6.86980       -1.18800
C          2.91590       -6.53130       -2.67830
C          2.26940       -5.49160       -3.57110
C          0.63580       -4.76560        0.01140
F         -0.47620       -5.51470       -0.10170
C          0.52460       -3.50600        0.56200
C          0.63840       -0.43570        0.65730
C          0.51040        0.90500        1.09840
C          1.31660        1.38330        2.14540
C          1.19970        2.76260        2.63090
C         -0.04080        3.30990        2.94600
C         -0.15960        4.61410        3.38610
C          0.96320        5.42090        3.53130
S          0.96830        7.10600        4.04070
C         -0.77490        7.47010        4.44310
C         -1.18980        6.90450        5.78860
C          2.20280        4.85320        3.22740
C          2.33470        3.55610        2.78810
F          3.31350        5.60650        3.35730
C          2.21350        0.48100        2.69730
S          3.27190        0.80100        4.04640
C         -0.45890        1.61490        0.34580
C         -1.06300        0.86340       -0.61690
S         -0.44190       -0.77550       -0.67060
C         -2.12100        1.25390       -1.48850
C         -2.68570        0.53220       -2.49620
C         -3.76790        1.19300       -3.13110
C         -4.56060        0.72720       -4.19280
C         -4.25620       -0.53460       -4.87650
C         -2.96540       -0.79990       -5.33380
C         -2.68580       -1.96800       -6.00860
C         -3.67210       -2.92420       -6.24420
S         -3.18180       -4.40160       -7.08370
C         -4.58700       -4.76660       -8.19940
C         -4.88570       -3.61110       -9.13320
C         -4.94830       -2.65930       -5.75690
F         -5.94720       -3.55640       -5.90750
C         -5.24840       -1.48290       -5.10040
C         -5.62580        1.53050       -4.56960
C         -5.89880        2.78890       -3.98000
C         -5.07830        3.27520       -2.94890
C         -5.30700        4.59110       -2.33930
C         -5.43980        5.73440       -3.12600
C         -5.65080        6.96630       -2.54500
C         -5.72780        7.11300       -1.16120
S         -5.95190        8.75130       -0.53110
C         -7.11120        8.53670        0.87080
C         -8.40990        7.88490        0.44130
C         -5.56240        5.96860       -0.38800
C         -5.37160        4.72590       -0.95650
F         -5.58290        6.03510        0.96290
C         -4.04290        2.44950       -2.53730
S         -2.90210        2.80870       -1.26610
C         -7.05440        3.39240       -4.53900
C         -7.62290        2.67610       -5.54910
S         -6.77580        1.16130       -5.82650
C         -8.87640        2.96450       -6.18630
S        -10.16170        3.40990       -5.11310
C        -11.33600        3.38710       -6.37740
C        -10.74540        3.12210       -7.60750
C         -9.32740        2.87680       -7.50090
C         -8.55780        2.67820       -8.68260
C         -7.06670        2.56410       -8.66120
C         -9.22320        2.64690       -9.87590
C        -10.61070        2.85440       -9.97470
C        -11.38510        3.12080       -8.88170
C        -12.83600        3.44790       -9.04490
C        -12.71880        3.62100       -6.03920
S        -13.20650        5.20280       -5.52180
C        -14.83230        4.72230       -5.35440
C        -15.01850        3.39280       -5.65430
C        -13.79140        2.74030       -6.03220
C        -13.79380        1.33800       -6.29860
C        -12.53230        0.58800       -6.59280
C        -14.99280        0.68830       -6.23960
C        -16.20340        1.34250       -5.91950
C        -16.24510        2.66870       -5.61350
C        -17.51160        3.36950       -5.23620
H         14.30910       -7.81150        2.81220
H         14.27800       -6.04260        4.72200
H         11.47340       -4.47460        7.84380
H         13.00930       -3.46580        9.42780
H         14.77420       -3.30920       10.90840
H         13.97850       -1.73390       10.61390
H         16.04460       -0.56170       11.37120
H         16.83250       -2.11420       11.65730
H         15.44490       -1.63430       12.64280
H         14.15780       -3.56350        4.63300
H         10.10800       -5.98160        0.62010
H          8.39770       -6.71700       -0.98410
H          4.17500       -8.58190        0.72310
H          4.05010       -9.13230       -0.95280
H          4.90260      -10.98100        0.48850
H          6.25250       -9.97340        1.01300
H          6.14100      -10.48590       -0.67410
H          7.45970       -6.98690        3.83190
H          7.34360       -4.60280        3.80550
H          7.80410       -3.95630        8.02870
H          7.63780       -3.21820        9.62570
H          8.67930       -2.47230        8.41490
H          5.99480       -1.70030       10.05570
H          3.96620       -0.52080        9.42020
H          2.33570       -0.76280        6.27720
H          3.01630        0.82690        6.62970
H          2.27380       -0.11480        7.92090
H          3.43420       -2.64420        2.92500
H          3.77520       -2.60660        0.38480
H          3.94710       -4.84980       -0.58670
H          3.91830       -6.24040       -2.36870
H          2.96990       -7.49810       -3.17790
H          1.26150       -5.79730       -3.84340
H          2.21410       -4.52900       -3.06520
H          2.85560       -5.37190       -4.48000
H         -0.44360       -3.16040        0.88840
H         -0.92810        2.70010        2.86650
H         -1.14230        4.99570        3.60880
H         -0.81160        8.55950        4.45610
H         -1.40040        7.11340        3.62610
H         -2.22660        7.16380        5.99490
H         -1.09130        5.82140        5.80790
H         -0.56430        7.31710        6.57650
H          3.31730        3.18180        2.54860
H         -0.69490        2.65260        0.49970
H         -2.35210       -0.45580       -2.75910
H         -2.18660       -0.06730       -5.18670
H         -1.68920       -2.16310       -6.37330
H         -5.45290       -5.04330       -7.60210
H         -4.24310       -5.64060       -8.75270
H         -5.66980       -3.89770       -9.83100
H         -5.22440       -2.73910       -8.57650
H         -3.99690       -3.33680       -9.69790
H         -6.25410       -1.33630       -4.73870
H         -5.36220        5.65530       -4.19970
H         -5.75640        7.84850       -3.15730
H         -6.61480        7.97600        1.65970
H         -7.27800        9.55830        1.21240
H         -9.09940        7.85360        1.28270
H         -8.23890        6.86560        0.09990
H         -8.87060        8.44760       -0.36800
H         -5.27710        3.86980       -0.30710
H         -7.45310        4.33310       -4.20280
H         -6.75830        1.54790       -8.41690
H         -6.63490        3.23690       -7.92300
H         -6.66200        2.81200       -9.64000
H         -8.66320        2.49460      -10.78730
H        -11.06250        2.84300      -10.95590
H        -13.47110        2.66490       -8.63290
H        -13.07370        3.56150      -10.10010
H        -13.07980        4.37650       -8.53170
H        -15.56200        5.44250       -5.04480
H        -12.12790        0.85460       -7.56850
H        -12.72400       -0.48250       -6.58310
H        -11.77130        0.81160       -5.84700
H        -15.02670       -0.37430       -6.43370
H        -17.11210        0.75810       -5.90110
H        -17.71290        4.19050       -5.92390
H        -17.43090        3.78620       -4.23250
H        -18.35160        2.68030       -5.26020
