
  xtb     03032200413D
 energy: -454.730336351629 gnorm: 0.000177524066 xtb: 6.4.1 (unknown)
229255  0     0  0            999 V2000
    0.4441   -0.4996    7.1378 C   0  0  0  0  0  0  0  0  0  0  0  0
    0.8670   -0.5564    5.8579 C   0  0  0  0  0  0  0  0  0  0  0  0
    0.2836   -1.6315    5.1260 C   0  0  0  0  0  0  0  0  0  0  0  0
    0.4689   -1.9763    3.7733 C   0  0  0  0  0  0  0  0  0  0  0  0
    1.4505   -1.2956    2.9467 C   0  0  0  0  0  0  0  0  0  0  0  0
    3.0439   -0.9726    3.5792 S   0  0  0  0  0  0  0  0  0  0  0  0
    3.5995   -0.2945    2.0923 C   0  0  0  0  0  0  0  0  0  0  0  0
    4.9600    0.2936    1.9489 C   0  0  0  0  0  0  0  0  0  0  0  0
    4.8910    1.8232    1.9551 C   0  0  0  0  0  0  0  0  0  0  0  0
    2.6028   -0.3265    1.1646 C   0  0  0  0  0  0  0  0  0  0  0  0
    2.8027    0.2210   -0.4472 Cl  0  0  0  0  0  0  0  0  0  0  0  0
    1.3861   -0.8801    1.6422 C   0  0  0  0  0  0  0  0  0  0  0  0
   -0.0203   -0.8639    0.6720 Cl  0  0  0  0  0  0  0  0  0  0  0  0
   -0.2993   -3.0335    3.2914 C   0  0  0  0  0  0  0  0  0  0  0  0
   -1.2150   -3.7605    4.0954 C   0  0  0  0  0  0  0  0  0  0  0  0
   -1.3579   -3.4453    5.4551 C   0  0  0  0  0  0  0  0  0  0  0  0
   -2.2357   -4.2081    6.3293 C   0  0  0  0  0  0  0  0  0  0  0  0
   -3.9252   -4.4152    5.9768 S   0  0  0  0  0  0  0  0  0  0  0  0
   -4.1943   -5.3580    7.4027 C   0  0  0  0  0  0  0  0  0  0  0  0
   -5.5393   -5.9247    7.6960 C   0  0  0  0  0  0  0  0  0  0  0  0
   -5.9315   -6.9829    6.6632 C   0  0  0  0  0  0  0  0  0  0  0  0
   -3.0322   -5.4979    8.0995 C   0  0  0  0  0  0  0  0  0  0  0  0
   -1.9222   -4.8431    7.4982 C   0  0  0  0  0  0  0  0  0  0  0  0
   -0.3402   -4.9323    8.1513 Cl  0  0  0  0  0  0  0  0  0  0  0  0
   -2.8900   -6.3744    9.5683 Cl  0  0  0  0  0  0  0  0  0  0  0  0
   -0.6124   -2.3732    5.9321 C   0  0  0  0  0  0  0  0  0  0  0  0
   -0.6920   -1.7333    7.5482 S   0  0  0  0  0  0  0  0  0  0  0  0
   -1.8820   -4.7748    3.3623 C   0  0  0  0  0  0  0  0  0  0  0  0
   -1.5079   -4.8307    2.0537 C   0  0  0  0  0  0  0  0  0  0  0  0
   -0.2530   -3.6726    1.6762 S   0  0  0  0  0  0  0  0  0  0  0  0
   -2.1095   -5.5477    0.9795 C   0  0  0  0  0  0  0  0  0  0  0  0
   -1.8040   -5.4117   -0.3423 C   0  0  0  0  0  0  0  0  0  0  0  0
   -2.7253   -6.0399   -1.2135 C   0  0  0  0  0  0  0  0  0  0  0  0
   -2.7418   -6.0340   -2.6262 C   0  0  0  0  0  0  0  0  0  0  0  0
   -1.7131   -5.3348   -3.3763 C   0  0  0  0  0  0  0  0  0  0  0  0
   -1.1763   -3.7459   -2.9012 S   0  0  0  0  0  0  0  0  0  0  0  0
    0.0230   -3.6750   -4.1448 C   0  0  0  0  0  0  0  0  0  0  0  0
    0.9592   -2.5242   -4.2658 C   0  0  0  0  0  0  0  0  0  0  0  0
    1.4199   -2.0100   -2.9058 C   0  0  0  0  0  0  0  0  0  0  0  0
   -0.0296   -4.8074   -4.9015 C   0  0  0  0  0  0  0  0  0  0  0  0
    0.9929   -5.0994   -6.2462 Cl  0  0  0  0  0  0  0  0  0  0  0  0
   -1.0031   -5.7481   -4.4721 C   0  0  0  0  0  0  0  0  0  0  0  0
   -1.1378   -7.2921   -5.2016 Cl  0  0  0  0  0  0  0  0  0  0  0  0
   -3.7993   -6.6993   -3.2357 C   0  0  0  0  0  0  0  0  0  0  0  0
   -4.8039   -7.3719   -2.5009 C   0  0  0  0  0  0  0  0  0  0  0  0
   -4.7771   -7.3914   -1.1010 C   0  0  0  0  0  0  0  0  0  0  0  0
   -5.8283   -8.0533   -0.3421 C   0  0  0  0  0  0  0  0  0  0  0  0
   -6.1473   -9.7529   -0.5218 S   0  0  0  0  0  0  0  0  0  0  0  0
   -7.4314   -9.7155    0.6398 C   0  0  0  0  0  0  0  0  0  0  0  0
   -8.2358  -10.9316    0.9391 C   0  0  0  0  0  0  0  0  0  0  0  0
   -9.2925  -11.1629   -0.1439 C   0  0  0  0  0  0  0  0  0  0  0  0
   -7.5948   -8.4521    1.1217 C   0  0  0  0  0  0  0  0  0  0  0  0
   -6.6880   -7.5089    0.5676 C   0  0  0  0  0  0  0  0  0  0  0  0
   -6.7469   -5.8417    0.9437 Cl  0  0  0  0  0  0  0  0  0  0  0  0
   -8.7700   -8.0137    2.2912 Cl  0  0  0  0  0  0  0  0  0  0  0  0
   -3.7386   -6.7096   -0.4867 C   0  0  0  0  0  0  0  0  0  0  0  0
   -3.5232   -6.5466    1.2308 S   0  0  0  0  0  0  0  0  0  0  0  0
   -5.8525   -7.8593   -3.3201 C   0  0  0  0  0  0  0  0  0  0  0  0
   -5.6868   -7.5492   -4.6324 C   0  0  0  0  0  0  0  0  0  0  0  0
   -4.1740   -6.7252   -4.9447 S   0  0  0  0  0  0  0  0  0  0  0  0
   -6.5769   -7.8044   -5.6619 N   0  0  0  0  0  0  0  0  0  0  0  0
   -6.5921   -6.8542   -6.7119 C   0  0  0  0  0  0  0  0  0  0  0  0
   -6.4166   -7.0813   -8.0371 C   0  0  0  0  0  0  0  0  0  0  0  0
   -6.6131   -5.6355   -8.9466 S   0  0  0  0  0  0  0  0  0  0  0  0
   -6.9630   -4.7215   -7.5349 C   0  0  0  0  0  0  0  0  0  0  0  0
   -6.9099   -5.4940   -6.4163 C   0  0  0  0  0  0  0  0  0  0  0  0
   -7.0688   -5.1106   -5.0708 N   0  0  0  0  0  0  0  0  0  0  0  0
   -8.2193   -5.5838   -4.3441 C   0  0  0  0  0  0  0  0  0  0  0  0
   -8.4926   -7.0846   -4.1971 C   0  0  0  0  0  0  0  0  0  0  0  0
   -9.2596   -7.4491   -3.3441 O   0  0  0  0  0  0  0  0  0  0  0  0
   -7.9215   -8.0940   -5.1972 C   0  0  0  0  0  0  0  0  0  0  0  0
   -6.1764   -4.2070   -4.5587 C   0  0  0  0  0  0  0  0  0  0  0  0
   -5.1882   -3.5858   -5.2588 C   0  0  0  0  0  0  0  0  0  0  0  0
   -4.4195   -2.6924   -4.4793 C   0  0  0  0  0  0  0  0  0  0  0  0
   -3.4006   -1.8420   -4.9334 C   0  0  0  0  0  0  0  0  0  0  0  0
   -3.0329   -1.8184   -6.3399 C   0  0  0  0  0  0  0  0  0  0  0  0
   -1.4042   -2.1381   -6.8538 S   0  0  0  0  0  0  0  0  0  0  0  0
   -1.8169   -1.9976   -8.5279 C   0  0  0  0  0  0  0  0  0  0  0  0
   -0.7729   -2.1316   -9.5802 C   0  0  0  0  0  0  0  0  0  0  0  0
    0.0951   -0.8735   -9.6525 C   0  0  0  0  0  0  0  0  0  0  0  0
   -3.1419   -1.7112   -8.6659 C   0  0  0  0  0  0  0  0  0  0  0  0
   -3.9298   -1.4960  -10.1765 Cl  0  0  0  0  0  0  0  0  0  0  0  0
   -3.8330   -1.6143   -7.4283 C   0  0  0  0  0  0  0  0  0  0  0  0
   -5.4956   -1.2007   -7.3315 Cl  0  0  0  0  0  0  0  0  0  0  0  0
   -2.7679   -1.0559   -3.9818 C   0  0  0  0  0  0  0  0  0  0  0  0
   -3.1112   -1.0897   -2.6106 C   0  0  0  0  0  0  0  0  0  0  0  0
   -4.1664   -1.9122   -2.1635 C   0  0  0  0  0  0  0  0  0  0  0  0
   -4.5157   -1.9274   -0.7553 C   0  0  0  0  0  0  0  0  0  0  0  0
   -4.6224   -3.4209    0.1232 S   0  0  0  0  0  0  0  0  0  0  0  0
   -4.8743   -2.6147    1.6306 C   0  0  0  0  0  0  0  0  0  0  0  0
   -5.0468   -3.3623    2.9057 C   0  0  0  0  0  0  0  0  0  0  0  0
   -6.4796   -3.2781    3.4334 C   0  0  0  0  0  0  0  0  0  0  0  0
   -4.8935   -1.2639    1.4431 C   0  0  0  0  0  0  0  0  0  0  0  0
   -4.7032   -0.8697    0.0939 C   0  0  0  0  0  0  0  0  0  0  0  0
   -4.8012    0.7733   -0.4000 Cl  0  0  0  0  0  0  0  0  0  0  0  0
   -5.0767   -0.1282    2.7156 Cl  0  0  0  0  0  0  0  0  0  0  0  0
   -4.7931   -2.6990   -3.1160 C   0  0  0  0  0  0  0  0  0  0  0  0
   -6.1440   -3.7835   -2.8533 S   0  0  0  0  0  0  0  0  0  0  0  0
   -2.2654   -0.2570   -1.8387 C   0  0  0  0  0  0  0  0  0  0  0  0
   -1.3527    0.4331   -2.5795 C   0  0  0  0  0  0  0  0  0  0  0  0
   -1.4824    0.0722   -4.2887 S   0  0  0  0  0  0  0  0  0  0  0  0
   -0.3602    1.3414   -2.1029 C   0  0  0  0  0  0  0  0  0  0  0  0
   -0.2911    1.9290   -0.8734 C   0  0  0  0  0  0  0  0  0  0  0  0
    0.8594    2.7352   -0.7002 C   0  0  0  0  0  0  0  0  0  0  0  0
    1.2369    3.4784    0.4303 C   0  0  0  0  0  0  0  0  0  0  0  0
    0.4223    3.4946    1.6375 C   0  0  0  0  0  0  0  0  0  0  0  0
    0.0852    2.0498    2.5428 S   0  0  0  0  0  0  0  0  0  0  0  0
   -0.8705    2.9037    3.7048 C   0  0  0  0  0  0  0  0  0  0  0  0
   -1.4957    2.2007    4.8604 C   0  0  0  0  0  0  0  0  0  0  0  0
   -0.8345    2.6005    6.1803 C   0  0  0  0  0  0  0  0  0  0  0  0
   -0.9107    4.2313    3.3982 C   0  0  0  0  0  0  0  0  0  0  0  0
   -1.7843    5.3993    4.3012 Cl  0  0  0  0  0  0  0  0  0  0  0  0
   -0.1740    4.5704    2.2315 C   0  0  0  0  0  0  0  0  0  0  0  0
   -0.1054    6.1656    1.6083 Cl  0  0  0  0  0  0  0  0  0  0  0  0
    2.4142    4.2064    0.3439 C   0  0  0  0  0  0  0  0  0  0  0  0
    3.2316    4.2181   -0.8141 C   0  0  0  0  0  0  0  0  0  0  0  0
    2.8467    3.4876   -1.9510 C   0  0  0  0  0  0  0  0  0  0  0  0
    3.6475    3.4845   -3.1630 C   0  0  0  0  0  0  0  0  0  0  0  0
    4.1202    1.9877   -3.9116 S   0  0  0  0  0  0  0  0  0  0  0  0
    4.9574    2.8009   -5.1895 C   0  0  0  0  0  0  0  0  0  0  0  0
    5.6006    2.0338   -6.2911 C   0  0  0  0  0  0  0  0  0  0  0  0
    4.5490    1.4826   -7.2566 C   0  0  0  0  0  0  0  0  0  0  0  0
    4.8597    4.1511   -5.0351 C   0  0  0  0  0  0  0  0  0  0  0  0
    4.1223    4.5439   -3.8847 C   0  0  0  0  0  0  0  0  0  0  0  0
    3.8040    6.1904   -3.5152 Cl  0  0  0  0  0  0  0  0  0  0  0  0
    5.5561    5.2939   -6.1094 Cl  0  0  0  0  0  0  0  0  0  0  0  0
    1.6702    2.7575   -1.8618 C   0  0  0  0  0  0  0  0  0  0  0  0
    0.9857    1.7846   -3.1292 S   0  0  0  0  0  0  0  0  0  0  0  0
    4.3981    4.9970   -0.6253 C   0  0  0  0  0  0  0  0  0  0  0  0
    4.4683    5.5860    0.6019 C   0  0  0  0  0  0  0  0  0  0  0  0
    3.1053    5.1677    1.6207 S   0  0  0  0  0  0  0  0  0  0  0  0
    5.4625    6.4980    1.0617 C   0  0  0  0  0  0  0  0  0  0  0  0
    5.5520    7.0997    2.2812 C   0  0  0  0  0  0  0  0  0  0  0  0
    6.6360    8.0072    2.3847 C   0  0  0  0  0  0  0  0  0  0  0  0
    7.0207    8.7804    3.4919 C   0  0  0  0  0  0  0  0  0  0  0  0
    6.2957    8.7160    4.7504 C   0  0  0  0  0  0  0  0  0  0  0  0
    6.0271    7.2022    5.5644 S   0  0  0  0  0  0  0  0  0  0  0  0
    5.1922    7.9631    6.8753 C   0  0  0  0  0  0  0  0  0  0  0  0
    4.6970    7.1757    8.0376 C   0  0  0  0  0  0  0  0  0  0  0  0
    5.8024    6.9840    9.0788 C   0  0  0  0  0  0  0  0  0  0  0  0
    5.1375    9.3107    6.6815 C   0  0  0  0  0  0  0  0  0  0  0  0
    4.3860   10.4035    7.7697 Cl  0  0  0  0  0  0  0  0  0  0  0  0
    5.7575    9.7413    5.4773 C   0  0  0  0  0  0  0  0  0  0  0  0
    5.7373   11.3777    4.9705 Cl  0  0  0  0  0  0  0  0  0  0  0  0
    8.1340    9.5984    3.3340 C   0  0  0  0  0  0  0  0  0  0  0  0
    8.8523    9.6984    2.1183 C   0  0  0  0  0  0  0  0  0  0  0  0
    8.4485    8.9501    1.0020 C   0  0  0  0  0  0  0  0  0  0  0  0
    9.1324    9.0496   -0.2787 C   0  0  0  0  0  0  0  0  0  0  0  0
   10.8417    8.7683   -0.4295 S   0  0  0  0  0  0  0  0  0  0  0  0
   10.8189    9.0486   -2.1369 C   0  0  0  0  0  0  0  0  0  0  0  0
   12.0490    8.9129   -2.9647 C   0  0  0  0  0  0  0  0  0  0  0  0
   12.1811    7.4923   -3.5191 C   0  0  0  0  0  0  0  0  0  0  0  0
    9.5527    9.3344   -2.5515 C   0  0  0  0  0  0  0  0  0  0  0  0
    8.5946    9.3391   -1.5022 C   0  0  0  0  0  0  0  0  0  0  0  0
    6.9518    9.7522   -1.7632 Cl  0  0  0  0  0  0  0  0  0  0  0  0
    9.1357    9.6730   -4.1808 Cl  0  0  0  0  0  0  0  0  0  0  0  0
    7.3580    8.1062    1.1697 C   0  0  0  0  0  0  0  0  0  0  0  0
    6.7196    7.0285   -0.0366 S   0  0  0  0  0  0  0  0  0  0  0  0
    9.9431   10.6092    2.2269 C   0  0  0  0  0  0  0  0  0  0  0  0
   10.0612   11.1382    3.4619 C   0  0  0  0  0  0  0  0  0  0  0  0
    8.8553   10.5879    4.5707 S   0  0  0  0  0  0  0  0  0  0  0  0
    0.7303    0.2045    7.8942 H   0  0  0  0  0  0  0  0  0  0  0  0
    1.5609    0.1440    5.4329 H   0  0  0  0  0  0  0  0  0  0  0  0
    5.5923   -0.0527    2.7672 H   0  0  0  0  0  0  0  0  0  0  0  0
    5.3944   -0.0416    1.0041 H   0  0  0  0  0  0  0  0  0  0  0  0
    4.2815    2.1733    1.1262 H   0  0  0  0  0  0  0  0  0  0  0  0
    4.4527    2.1821    2.8833 H   0  0  0  0  0  0  0  0  0  0  0  0
    5.8878    2.2439    1.8551 H   0  0  0  0  0  0  0  0  0  0  0  0
   -6.2813   -5.1226    7.6887 H   0  0  0  0  0  0  0  0  0  0  0  0
   -5.5185   -6.3668    8.6932 H   0  0  0  0  0  0  0  0  0  0  0  0
   -5.9569   -6.5490    5.6661 H   0  0  0  0  0  0  0  0  0  0  0  0
   -5.2141   -7.7998    6.6674 H   0  0  0  0  0  0  0  0  0  0  0  0
   -6.9150   -7.3831    6.8939 H   0  0  0  0  0  0  0  0  0  0  0  0
   -2.6302   -5.4227    3.7806 H   0  0  0  0  0  0  0  0  0  0  0  0
   -0.9508   -4.8459   -0.6660 H   0  0  0  0  0  0  0  0  0  0  0  0
    1.8168   -2.8464   -4.8596 H   0  0  0  0  0  0  0  0  0  0  0  0
    0.4698   -1.7103   -4.8079 H   0  0  0  0  0  0  0  0  0  0  0  0
    2.0918   -1.1662   -3.0376 H   0  0  0  0  0  0  0  0  0  0  0  0
    0.5674   -1.6856   -2.3129 H   0  0  0  0  0  0  0  0  0  0  0  0
    1.9413   -2.7896   -2.3555 H   0  0  0  0  0  0  0  0  0  0  0  0
   -8.7235  -10.7974    1.9061 H   0  0  0  0  0  0  0  0  0  0  0  0
   -7.5778  -11.8007    0.9960 H   0  0  0  0  0  0  0  0  0  0  0  0
   -9.9518  -10.3018   -0.2180 H   0  0  0  0  0  0  0  0  0  0  0  0
   -9.8877  -12.0399    0.0954 H   0  0  0  0  0  0  0  0  0  0  0  0
   -8.8150  -11.3167   -1.1088 H   0  0  0  0  0  0  0  0  0  0  0  0
   -6.6946   -8.3829   -2.9122 H   0  0  0  0  0  0  0  0  0  0  0  0
   -6.1725   -8.0011   -8.5277 H   0  0  0  0  0  0  0  0  0  0  0  0
   -7.1600   -3.6710   -7.6140 H   0  0  0  0  0  0  0  0  0  0  0  0
   -9.1373   -5.1943   -4.8171 H   0  0  0  0  0  0  0  0  0  0  0  0
   -8.1840   -5.1732   -3.3310 H   0  0  0  0  0  0  0  0  0  0  0  0
   -8.5893   -8.1184   -6.0642 H   0  0  0  0  0  0  0  0  0  0  0  0
   -7.9459   -9.0829   -4.7303 H   0  0  0  0  0  0  0  0  0  0  0  0
   -4.9958   -3.7580   -6.2988 H   0  0  0  0  0  0  0  0  0  0  0  0
   -1.2628   -2.3000  -10.5406 H   0  0  0  0  0  0  0  0  0  0  0  0
   -0.1410   -2.9929   -9.3538 H   0  0  0  0  0  0  0  0  0  0  0  0
   -0.5152   -0.0068   -9.8941 H   0  0  0  0  0  0  0  0  0  0  0  0
    0.5839   -0.6986   -8.6969 H   0  0  0  0  0  0  0  0  0  0  0  0
    0.8562   -0.9885  -10.4194 H   0  0  0  0  0  0  0  0  0  0  0  0
   -4.3677   -2.9417    3.6520 H   0  0  0  0  0  0  0  0  0  0  0  0
   -4.7795   -4.4066    2.7451 H   0  0  0  0  0  0  0  0  0  0  0  0
   -6.7622   -2.2444    3.6100 H   0  0  0  0  0  0  0  0  0  0  0  0
   -7.1750   -3.7116    2.7200 H   0  0  0  0  0  0  0  0  0  0  0  0
   -6.5522   -3.8242    4.3699 H   0  0  0  0  0  0  0  0  0  0  0  0
   -2.3043   -0.1998   -0.7684 H   0  0  0  0  0  0  0  0  0  0  0  0
   -1.0428    1.8030   -0.1167 H   0  0  0  0  0  0  0  0  0  0  0  0
   -1.4052    1.1231    4.7121 H   0  0  0  0  0  0  0  0  0  0  0  0
   -2.5577    2.4560    4.9000 H   0  0  0  0  0  0  0  0  0  0  0  0
   -0.9597    3.6646    6.3588 H   0  0  0  0  0  0  0  0  0  0  0  0
   -1.2891    2.0530    7.0014 H   0  0  0  0  0  0  0  0  0  0  0  0
    0.2284    2.3748    6.1549 H   0  0  0  0  0  0  0  0  0  0  0  0
    6.2833    2.6964   -6.8252 H   0  0  0  0  0  0  0  0  0  0  0  0
    6.1743    1.2051   -5.8711 H   0  0  0  0  0  0  0  0  0  0  0  0
    3.8629    0.8242   -6.7290 H   0  0  0  0  0  0  0  0  0  0  0  0
    3.9789    2.2964   -7.6977 H   0  0  0  0  0  0  0  0  0  0  0  0
    5.0304    0.9224   -8.0535 H   0  0  0  0  0  0  0  0  0  0  0  0
    5.1632    5.1228   -1.3693 H   0  0  0  0  0  0  0  0  0  0  0  0
    4.8541    6.9030    3.0747 H   0  0  0  0  0  0  0  0  0  0  0  0
    3.8584    7.7090    8.4891 H   0  0  0  0  0  0  0  0  0  0  0  0
    4.3485    6.2006    7.6929 H   0  0  0  0  0  0  0  0  0  0  0  0
    5.4266    6.4088    9.9206 H   0  0  0  0  0  0  0  0  0  0  0  0
    6.6452    6.4543    8.6411 H   0  0  0  0  0  0  0  0  0  0  0  0
    6.1484    7.9483    9.4418 H   0  0  0  0  0  0  0  0  0  0  0  0
   11.9936    9.6218   -3.7934 H   0  0  0  0  0  0  0  0  0  0  0  0
   12.9230    9.1510   -2.3566 H   0  0  0  0  0  0  0  0  0  0  0  0
   12.2389    6.7730   -2.7056 H   0  0  0  0  0  0  0  0  0  0  0  0
   13.0805    7.4100   -4.1234 H   0  0  0  0  0  0  0  0  0  0  0  0
   11.3213    7.2491   -4.1379 H   0  0  0  0  0  0  0  0  0  0  0  0
   10.6020   10.8455    1.4119 H   0  0  0  0  0  0  0  0  0  0  0  0
   10.7928   11.8412    3.8094 H   0  0  0  0  0  0  0  0  0  0  0  0
  1  2  2  0  0  0  0
  2  3  1  0  0  0  0
  3  4  2  0  0  0  0
  4  5  1  0  0  0  0
  5  6  1  0  0  0  0
  6  7  1  0  0  0  0
  7  8  1  0  0  0  0
  8  9  1  0  0  0  0
  7 10  2  0  0  0  0
 10 11  1  0  0  0  0
 10 12  1  0  0  0  0
 12 13  1  0  0  0  0
  4 14  1  0  0  0  0
 14 15  2  0  0  0  0
 15 16  1  0  0  0  0
 16 17  1  0  0  0  0
 17 18  1  0  0  0  0
 18 19  1  0  0  0  0
 19 20  1  0  0  0  0
 20 21  1  0  0  0  0
 19 22  2  0  0  0  0
 22 23  1  0  0  0  0
 23 24  1  0  0  0  0
 22 25  1  0  0  0  0
 16 26  2  0  0  0  0
 26 27  1  0  0  0  0
 15 28  1  0  0  0  0
 28 29  2  0  0  0  0
 29 30  1  0  0  0  0
 29 31  1  0  0  0  0
 31 32  2  0  0  0  0
 32 33  1  0  0  0  0
 33 34  2  0  0  0  0
 34 35  1  0  0  0  0
 35 36  1  0  0  0  0
 36 37  1  0  0  0  0
 37 38  1  0  0  0  0
 38 39  1  0  0  0  0
 37 40  2  0  0  0  0
 40 41  1  0  0  0  0
 40 42  1  0  0  0  0
 42 43  1  0  0  0  0
 34 44  1  0  0  0  0
 44 45  2  0  0  0  0
 45 46  1  0  0  0  0
 46 47  1  0  0  0  0
 47 48  1  0  0  0  0
 48 49  1  0  0  0  0
 49 50  1  0  0  0  0
 50 51  1  0  0  0  0
 49 52  2  0  0  0  0
 52 53  1  0  0  0  0
 53 54  1  0  0  0  0
 52 55  1  0  0  0  0
 46 56  2  0  0  0  0
 56 57  1  0  0  0  0
 45 58  1  0  0  0  0
 58 59  2  0  0  0  0
 59 60  1  0  0  0  0
 59 61  1  0  0  0  0
 61 62  1  0  0  0  0
 62 63  2  0  0  0  0
 63 64  1  0  0  0  0
 64 65  1  0  0  0  0
 65 66  2  0  0  0  0
 66 67  1  0  0  0  0
 67 68  1  0  0  0  0
 68 69  1  0  0  0  0
 69 70  2  0  0  0  0
 69 71  1  0  0  0  0
 67 72  1  0  0  0  0
 72 73  2  0  0  0  0
 73 74  1  0  0  0  0
 74 75  2  0  0  0  0
 75 76  1  0  0  0  0
 76 77  1  0  0  0  0
 77 78  1  0  0  0  0
 78 79  1  0  0  0  0
 79 80  1  0  0  0  0
 78 81  2  0  0  0  0
 81 82  1  0  0  0  0
 81 83  1  0  0  0  0
 83 84  1  0  0  0  0
 75 85  1  0  0  0  0
 85 86  2  0  0  0  0
 86 87  1  0  0  0  0
 87 88  1  0  0  0  0
 88 89  1  0  0  0  0
 89 90  1  0  0  0  0
 90 91  1  0  0  0  0
 91 92  1  0  0  0  0
 90 93  2  0  0  0  0
 93 94  1  0  0  0  0
 94 95  1  0  0  0  0
 93 96  1  0  0  0  0
 87 97  2  0  0  0  0
 97 98  1  0  0  0  0
 86 99  1  0  0  0  0
 99100  2  0  0  0  0
100101  1  0  0  0  0
100102  1  0  0  0  0
102103  2  0  0  0  0
103104  1  0  0  0  0
104105  2  0  0  0  0
105106  1  0  0  0  0
106107  1  0  0  0  0
107108  1  0  0  0  0
108109  1  0  0  0  0
109110  1  0  0  0  0
108111  2  0  0  0  0
111112  1  0  0  0  0
111113  1  0  0  0  0
113114  1  0  0  0  0
105115  1  0  0  0  0
115116  2  0  0  0  0
116117  1  0  0  0  0
117118  1  0  0  0  0
118119  1  0  0  0  0
119120  1  0  0  0  0
120121  1  0  0  0  0
121122  1  0  0  0  0
120123  2  0  0  0  0
123124  1  0  0  0  0
124125  1  0  0  0  0
123126  1  0  0  0  0
117127  2  0  0  0  0
127128  1  0  0  0  0
116129  1  0  0  0  0
129130  2  0  0  0  0
130131  1  0  0  0  0
130132  1  0  0  0  0
132133  2  0  0  0  0
133134  1  0  0  0  0
134135  2  0  0  0  0
135136  1  0  0  0  0
136137  1  0  0  0  0
137138  1  0  0  0  0
138139  1  0  0  0  0
139140  1  0  0  0  0
138141  2  0  0  0  0
141142  1  0  0  0  0
141143  1  0  0  0  0
143144  1  0  0  0  0
135145  1  0  0  0  0
145146  2  0  0  0  0
146147  1  0  0  0  0
147148  1  0  0  0  0
148149  1  0  0  0  0
149150  1  0  0  0  0
150151  1  0  0  0  0
151152  1  0  0  0  0
150153  2  0  0  0  0
153154  1  0  0  0  0
154155  1  0  0  0  0
153156  1  0  0  0  0
147157  2  0  0  0  0
157158  1  0  0  0  0
146159  1  0  0  0  0
159160  2  0  0  0  0
160161  1  0  0  0  0
 27  1  1  0  0  0  0
 57 31  1  0  0  0  0
 71 61  1  0  0  0  0
 98 72  1  0  0  0  0
128102  1  0  0  0  0
158132  1  0  0  0  0
 26  3  1  0  0  0  0
 56 33  1  0  0  0  0
 66 62  1  0  0  0  0
 97 74  1  0  0  0  0
127104  1  0  0  0  0
157134  1  0  0  0  0
 12  5  2  0  0  0  0
 30 14  1  0  0  0  0
 42 35  2  0  0  0  0
 60 44  1  0  0  0  0
 83 76  2  0  0  0  0
101 85  1  0  0  0  0
113106  2  0  0  0  0
131115  1  0  0  0  0
143136  2  0  0  0  0
161145  1  0  0  0  0
 23 17  2  0  0  0  0
 53 47  2  0  0  0  0
 94 88  2  0  0  0  0
124118  2  0  0  0  0
154148  2  0  0  0  0
  1162  1  0  0  0  0
  2163  1  0  0  0  0
  8164  1  0  0  0  0
  8165  1  0  0  0  0
  9166  1  0  0  0  0
  9167  1  0  0  0  0
  9168  1  0  0  0  0
 20169  1  0  0  0  0
 20170  1  0  0  0  0
 21171  1  0  0  0  0
 21172  1  0  0  0  0
 21173  1  0  0  0  0
 28174  1  0  0  0  0
 32175  1  0  0  0  0
 38176  1  0  0  0  0
 38177  1  0  0  0  0
 39178  1  0  0  0  0
 39179  1  0  0  0  0
 39180  1  0  0  0  0
 50181  1  0  0  0  0
 50182  1  0  0  0  0
 51183  1  0  0  0  0
 51184  1  0  0  0  0
 51185  1  0  0  0  0
 58186  1  0  0  0  0
 63187  1  0  0  0  0
 65188  1  0  0  0  0
 68189  1  0  0  0  0
 68190  1  0  0  0  0
 71191  1  0  0  0  0
 71192  1  0  0  0  0
 73193  1  0  0  0  0
 79194  1  0  0  0  0
 79195  1  0  0  0  0
 80196  1  0  0  0  0
 80197  1  0  0  0  0
 80198  1  0  0  0  0
 91199  1  0  0  0  0
 91200  1  0  0  0  0
 92201  1  0  0  0  0
 92202  1  0  0  0  0
 92203  1  0  0  0  0
 99204  1  0  0  0  0
103205  1  0  0  0  0
109206  1  0  0  0  0
109207  1  0  0  0  0
110208  1  0  0  0  0
110209  1  0  0  0  0
110210  1  0  0  0  0
121211  1  0  0  0  0
121212  1  0  0  0  0
122213  1  0  0  0  0
122214  1  0  0  0  0
122215  1  0  0  0  0
129216  1  0  0  0  0
133217  1  0  0  0  0
139218  1  0  0  0  0
139219  1  0  0  0  0
140220  1  0  0  0  0
140221  1  0  0  0  0
140222  1  0  0  0  0
151223  1  0  0  0  0
151224  1  0  0  0  0
152225  1  0  0  0  0
152226  1  0  0  0  0
152227  1  0  0  0  0
159228  1  0  0  0  0
160229  1  0  0  0  0
M  END
