229

C          0.44410       -0.49960        7.13780
C          0.86700       -0.55640        5.85790
C          0.28360       -1.63150        5.12600
C          0.46890       -1.97630        3.77330
C          1.45050       -1.29560        2.94670
S          3.04390       -0.97260        3.57920
C          3.59950       -0.29450        2.09230
C          4.96000        0.29360        1.94890
C          4.89100        1.82320        1.95510
C          2.60280       -0.32650        1.16460
Cl         2.80270        0.22100       -0.44720
C          1.38610       -0.88010        1.64220
Cl        -0.02030       -0.86390        0.67200
C         -0.29930       -3.03350        3.29140
C         -1.21500       -3.76050        4.09540
C         -1.35790       -3.44530        5.45510
C         -2.23570       -4.20810        6.32930
S         -3.92520       -4.41520        5.97680
C         -4.19430       -5.35800        7.40270
C         -5.53930       -5.92470        7.69600
C         -5.93150       -6.98290        6.66320
C         -3.03220       -5.49790        8.09950
C         -1.92220       -4.84310        7.49820
Cl        -0.34020       -4.93230        8.15130
Cl        -2.89000       -6.37440        9.56830
C         -0.61240       -2.37320        5.93210
S         -0.69200       -1.73330        7.54820
C         -1.88200       -4.77480        3.36230
C         -1.50790       -4.83070        2.05370
S         -0.25300       -3.67260        1.67620
C         -2.10950       -5.54770        0.97950
C         -1.80400       -5.41170       -0.34230
C         -2.72530       -6.03990       -1.21350
C         -2.74180       -6.03400       -2.62620
C         -1.71310       -5.33480       -3.37630
S         -1.17630       -3.74590       -2.90120
C          0.02300       -3.67500       -4.14480
C          0.95920       -2.52420       -4.26580
C          1.41990       -2.01000       -2.90580
C         -0.02960       -4.80740       -4.90150
Cl         0.99290       -5.09940       -6.24620
C         -1.00310       -5.74810       -4.47210
Cl        -1.13780       -7.29210       -5.20160
C         -3.79930       -6.69930       -3.23570
C         -4.80390       -7.37190       -2.50090
C         -4.77710       -7.39140       -1.10100
C         -5.82830       -8.05330       -0.34210
S         -6.14730       -9.75290       -0.52180
C         -7.43140       -9.71550        0.63980
C         -8.23580      -10.93160        0.93910
C         -9.29250      -11.16290       -0.14390
C         -7.59480       -8.45210        1.12170
C         -6.68800       -7.50890        0.56760
Cl        -6.74690       -5.84170        0.94370
Cl        -8.77000       -8.01370        2.29120
C         -3.73860       -6.70960       -0.48670
S         -3.52320       -6.54660        1.23080
C         -5.85250       -7.85930       -3.32010
C         -5.68680       -7.54920       -4.63240
S         -4.17400       -6.72520       -4.94470
N         -6.57690       -7.80440       -5.66190
C         -6.59210       -6.85420       -6.71190
C         -6.41660       -7.08130       -8.03710
S         -6.61310       -5.63550       -8.94660
C         -6.96300       -4.72150       -7.53490
C         -6.90990       -5.49400       -6.41630
N         -7.06880       -5.11060       -5.07080
C         -8.21930       -5.58380       -4.34410
C         -8.49260       -7.08460       -4.19710
O         -9.25960       -7.44910       -3.34410
C         -7.92150       -8.09400       -5.19720
C         -6.17640       -4.20700       -4.55870
C         -5.18820       -3.58580       -5.25880
C         -4.41950       -2.69240       -4.47930
C         -3.40060       -1.84200       -4.93340
C         -3.03290       -1.81840       -6.33990
S         -1.40420       -2.13810       -6.85380
C         -1.81690       -1.99760       -8.52790
C         -0.77290       -2.13160       -9.58020
C          0.09510       -0.87350       -9.65250
C         -3.14190       -1.71120       -8.66590
Cl        -3.92980       -1.49600      -10.17650
C         -3.83300       -1.61430       -7.42830
Cl        -5.49560       -1.20070       -7.33150
C         -2.76790       -1.05590       -3.98180
C         -3.11120       -1.08970       -2.61060
C         -4.16640       -1.91220       -2.16350
C         -4.51570       -1.92740       -0.75530
S         -4.62240       -3.42090        0.12320
C         -4.87430       -2.61470        1.63060
C         -5.04680       -3.36230        2.90570
C         -6.47960       -3.27810        3.43340
C         -4.89350       -1.26390        1.44310
C         -4.70320       -0.86970        0.09390
Cl        -4.80120        0.77330       -0.40000
Cl        -5.07670       -0.12820        2.71560
C         -4.79310       -2.69900       -3.11600
S         -6.14400       -3.78350       -2.85330
C         -2.26540       -0.25700       -1.83870
C         -1.35270        0.43310       -2.57950
S         -1.48240        0.07220       -4.28870
C         -0.36020        1.34140       -2.10290
C         -0.29110        1.92900       -0.87340
C          0.85940        2.73520       -0.70020
C          1.23690        3.47840        0.43030
C          0.42230        3.49460        1.63750
S          0.08520        2.04980        2.54280
C         -0.87050        2.90370        3.70480
C         -1.49570        2.20070        4.86040
C         -0.83450        2.60050        6.18030
C         -0.91070        4.23130        3.39820
Cl        -1.78430        5.39930        4.30120
C         -0.17400        4.57040        2.23150
Cl        -0.10540        6.16560        1.60830
C          2.41420        4.20640        0.34390
C          3.23160        4.21810       -0.81410
C          2.84670        3.48760       -1.95100
C          3.64750        3.48450       -3.16300
S          4.12020        1.98770       -3.91160
C          4.95740        2.80090       -5.18950
C          5.60060        2.03380       -6.29110
C          4.54900        1.48260       -7.25660
C          4.85970        4.15110       -5.03510
C          4.12230        4.54390       -3.88470
Cl         3.80400        6.19040       -3.51520
Cl         5.55610        5.29390       -6.10940
C          1.67020        2.75750       -1.86180
S          0.98570        1.78460       -3.12920
C          4.39810        4.99700       -0.62530
C          4.46830        5.58600        0.60190
S          3.10530        5.16770        1.62070
C          5.46250        6.49800        1.06170
C          5.55200        7.09970        2.28120
C          6.63600        8.00720        2.38470
C          7.02070        8.78040        3.49190
C          6.29570        8.71600        4.75040
S          6.02710        7.20220        5.56440
C          5.19220        7.96310        6.87530
C          4.69700        7.17570        8.03760
C          5.80240        6.98400        9.07880
C          5.13750        9.31070        6.68150
Cl         4.38600       10.40350        7.76970
C          5.75750        9.74130        5.47730
Cl         5.73730       11.37770        4.97050
C          8.13400        9.59840        3.33400
C          8.85230        9.69840        2.11830
C          8.44850        8.95010        1.00200
C          9.13240        9.04960       -0.27870
S         10.84170        8.76830       -0.42950
C         10.81890        9.04860       -2.13690
C         12.04900        8.91290       -2.96470
C         12.18110        7.49230       -3.51910
C          9.55270        9.33440       -2.55150
C          8.59460        9.33910       -1.50220
Cl         6.95180        9.75220       -1.76320
Cl         9.13570        9.67300       -4.18080
C          7.35800        8.10620        1.16970
S          6.71960        7.02850       -0.03660
C          9.94310       10.60920        2.22690
C         10.06120       11.13820        3.46190
S          8.85530       10.58790        4.57070
H          0.73030        0.20450        7.89420
H          1.56090        0.14400        5.43290
H          5.59230       -0.05270        2.76720
H          5.39440       -0.04160        1.00410
H          4.28150        2.17330        1.12620
H          4.45270        2.18210        2.88330
H          5.88780        2.24390        1.85510
H         -6.28130       -5.12260        7.68870
H         -5.51850       -6.36680        8.69320
H         -5.95690       -6.54900        5.66610
H         -5.21410       -7.79980        6.66740
H         -6.91500       -7.38310        6.89390
H         -2.63020       -5.42270        3.78060
H         -0.95080       -4.84590       -0.66600
H          1.81680       -2.84640       -4.85960
H          0.46980       -1.71030       -4.80790
H          2.09180       -1.16620       -3.03760
H          0.56740       -1.68560       -2.31290
H          1.94130       -2.78960       -2.35550
H         -8.72350      -10.79740        1.90610
H         -7.57780      -11.80070        0.99600
H         -9.95180      -10.30180       -0.21800
H         -9.88770      -12.03990        0.09540
H         -8.81500      -11.31670       -1.10880
H         -6.69460       -8.38290       -2.91220
H         -6.17250       -8.00110       -8.52770
H         -7.16000       -3.67100       -7.61400
H         -9.13730       -5.19430       -4.81710
H         -8.18400       -5.17320       -3.33100
H         -8.58930       -8.11840       -6.06420
H         -7.94590       -9.08290       -4.73030
H         -4.99580       -3.75800       -6.29880
H         -1.26280       -2.30000      -10.54060
H         -0.14100       -2.99290       -9.35380
H         -0.51520       -0.00680       -9.89410
H          0.58390       -0.69860       -8.69690
H          0.85620       -0.98850      -10.41940
H         -4.36770       -2.94170        3.65200
H         -4.77950       -4.40660        2.74510
H         -6.76220       -2.24440        3.61000
H         -7.17500       -3.71160        2.72000
H         -6.55220       -3.82420        4.36990
H         -2.30430       -0.19980       -0.76840
H         -1.04280        1.80300       -0.11670
H         -1.40520        1.12310        4.71210
H         -2.55770        2.45600        4.90000
H         -0.95970        3.66460        6.35880
H         -1.28910        2.05300        7.00140
H          0.22840        2.37480        6.15490
H          6.28330        2.69640       -6.82520
H          6.17430        1.20510       -5.87110
H          3.86290        0.82420       -6.72900
H          3.97890        2.29640       -7.69770
H          5.03040        0.92240       -8.05350
H          5.16320        5.12280       -1.36930
H          4.85410        6.90300        3.07470
H          3.85840        7.70900        8.48910
H          4.34850        6.20060        7.69290
H          5.42660        6.40880        9.92060
H          6.64520        6.45430        8.64110
H          6.14840        7.94830        9.44180
H         11.99360        9.62180       -3.79340
H         12.92300        9.15100       -2.35660
H         12.23890        6.77300       -2.70560
H         13.08050        7.41000       -4.12340
H         11.32130        7.24910       -4.13790
H         10.60200       10.84550        1.41190
H         10.79280       11.84120        3.80940
