
  xtb     03022207393D
 energy: -464.623598756116 gnorm: 0.000897304107 xtb: 6.4.1 (unknown)
231256  0     0  0            999 V2000
    6.3564   -8.8172    6.8642 C   0  0  0  0  0  0  0  0  0  0  0  0
    6.0882   -7.5035    7.0091 C   0  0  0  0  0  0  0  0  0  0  0  0
    4.9311   -7.0931    6.2853 C   0  0  0  0  0  0  0  0  0  0  0  0
    4.3768   -5.8083    6.1763 C   0  0  0  0  0  0  0  0  0  0  0  0
    4.9006   -4.6975    6.9531 C   0  0  0  0  0  0  0  0  0  0  0  0
    5.3831   -3.1982    6.2176 S   0  0  0  0  0  0  0  0  0  0  0  0
    5.8446   -2.5143    7.7394 C   0  0  0  0  0  0  0  0  0  0  0  0
    6.4589   -1.1623    7.8370 C   0  0  0  0  0  0  0  0  0  0  0  0
    7.9862   -1.2567    7.7940 C   0  0  0  0  0  0  0  0  0  0  0  0
    5.6271   -3.4057    8.7473 C   0  0  0  0  0  0  0  0  0  0  0  0
    5.9612   -3.0805   10.3983 Cl  0  0  0  0  0  0  0  0  0  0  0  0
    5.0886   -4.6431    8.3064 C   0  0  0  0  0  0  0  0  0  0  0  0
    4.6560   -5.9028    9.3888 Cl  0  0  0  0  0  0  0  0  0  0  0  0
    3.3046   -5.6562    5.3089 C   0  0  0  0  0  0  0  0  0  0  0  0
    2.7350   -6.7310    4.5828 C   0  0  0  0  0  0  0  0  0  0  0  0
    3.2533   -8.0257    4.7375 C   0  0  0  0  0  0  0  0  0  0  0  0
    2.6871   -9.1797    4.0548 C   0  0  0  0  0  0  0  0  0  0  0  0
    2.6110   -9.2780    2.3238 S   0  0  0  0  0  0  0  0  0  0  0  0
    1.9219  -10.8637    2.3617 C   0  0  0  0  0  0  0  0  0  0  0  0
    1.5378  -11.5710    1.1089 C   0  0  0  0  0  0  0  0  0  0  0  0
    0.0986  -11.2374    0.7086 C   0  0  0  0  0  0  0  0  0  0  0  0
    1.7579  -11.2758    3.6505 C   0  0  0  0  0  0  0  0  0  0  0  0
    2.1993  -10.3283    4.6127 C   0  0  0  0  0  0  0  0  0  0  0  0
    2.0628  -10.5900    6.3009 Cl  0  0  0  0  0  0  0  0  0  0  0  0
    1.0960  -12.7958    4.0906 Cl  0  0  0  0  0  0  0  0  0  0  0  0
    4.3509   -8.1710    5.5774 C   0  0  0  0  0  0  0  0  0  0  0  0
    5.2330   -9.6474    5.8450 S   0  0  0  0  0  0  0  0  0  0  0  0
    1.6444   -6.3070    3.7810 C   0  0  0  0  0  0  0  0  0  0  0  0
    1.3902   -4.9722    3.8710 C   0  0  0  0  0  0  0  0  0  0  0  0
    2.4749   -4.1626    4.9899 S   0  0  0  0  0  0  0  0  0  0  0  0
    0.4029   -4.1867    3.2068 C   0  0  0  0  0  0  0  0  0  0  0  0
    0.1934   -2.8544    3.3976 C   0  0  0  0  0  0  0  0  0  0  0  0
   -0.8583   -2.3210    2.6201 C   0  0  0  0  0  0  0  0  0  0  0  0
   -1.3301   -0.9982    2.5969 C   0  0  0  0  0  0  0  0  0  0  0  0
   -0.7686    0.0277    3.4582 C   0  0  0  0  0  0  0  0  0  0  0  0
   -0.2163    1.5408    2.8036 S   0  0  0  0  0  0  0  0  0  0  0  0
    0.2600    2.1283    4.3592 C   0  0  0  0  0  0  0  0  0  0  0  0
    0.8345    3.4912    4.5177 C   0  0  0  0  0  0  0  0  0  0  0  0
   -0.2066    4.5637    4.1982 C   0  0  0  0  0  0  0  0  0  0  0  0
   -0.0126    1.2011    5.3202 C   0  0  0  0  0  0  0  0  0  0  0  0
    0.3141    1.4219    6.9897 Cl  0  0  0  0  0  0  0  0  0  0  0  0
   -0.5930    0.0071    4.8139 C   0  0  0  0  0  0  0  0  0  0  0  0
   -1.0933   -1.2781    5.8360 Cl  0  0  0  0  0  0  0  0  0  0  0  0
   -2.3498   -0.7146    1.7012 C   0  0  0  0  0  0  0  0  0  0  0  0
   -2.9352   -1.6911    0.8605 C   0  0  0  0  0  0  0  0  0  0  0  0
   -2.4813   -3.0213    0.9069 C   0  0  0  0  0  0  0  0  0  0  0  0
   -3.0937   -4.0270    0.0549 C   0  0  0  0  0  0  0  0  0  0  0  0
   -2.1620   -4.9692   -1.0685 S   0  0  0  0  0  0  0  0  0  0  0  0
   -3.5688   -5.7776   -1.6742 C   0  0  0  0  0  0  0  0  0  0  0  0
   -3.4819   -6.7547   -2.7931 C   0  0  0  0  0  0  0  0  0  0  0  0
   -3.4899   -6.0374   -4.1448 C   0  0  0  0  0  0  0  0  0  0  0  0
   -4.6851   -5.3325   -1.0315 C   0  0  0  0  0  0  0  0  0  0  0  0
   -4.4200   -4.3405   -0.0500 C   0  0  0  0  0  0  0  0  0  0  0  0
   -5.6482   -3.6618    0.9385 Cl  0  0  0  0  0  0  0  0  0  0  0  0
   -6.2701   -5.9010   -1.3603 Cl  0  0  0  0  0  0  0  0  0  0  0  0
   -1.4414   -3.3025    1.7809 C   0  0  0  0  0  0  0  0  0  0  0  0
   -0.6976   -4.8585    2.0207 S   0  0  0  0  0  0  0  0  0  0  0  0
   -3.9145   -1.1298    0.0051 C   0  0  0  0  0  0  0  0  0  0  0  0
   -4.0938    0.2093    0.1903 C   0  0  0  0  0  0  0  0  0  0  0  0
   -3.0648    0.8498    1.4563 S   0  0  0  0  0  0  0  0  0  0  0  0
   -4.7815    1.1178   -0.6630 C   0  0  0  0  0  0  0  0  0  0  0  0
   -4.6525    2.4754   -0.6553 C   0  0  0  0  0  0  0  0  0  0  0  0
   -4.9993    3.0812   -1.8854 C   0  0  0  0  0  0  0  0  0  0  0  0
   -4.6870    4.3802   -2.3238 C   0  0  0  0  0  0  0  0  0  0  0  0
   -4.0028    5.3695   -1.5034 C   0  0  0  0  0  0  0  0  0  0  0  0
   -4.5164    7.0345   -1.5956 S   0  0  0  0  0  0  0  0  0  0  0  0
   -3.2361    7.5879   -0.5763 C   0  0  0  0  0  0  0  0  0  0  0  0
   -3.1034    9.0222   -0.2023 C   0  0  0  0  0  0  0  0  0  0  0  0
   -4.0287    9.3743    0.9648 C   0  0  0  0  0  0  0  0  0  0  0  0
   -2.4767    6.5329   -0.1738 C   0  0  0  0  0  0  0  0  0  0  0  0
   -1.0994    6.6790    0.8377 Cl  0  0  0  0  0  0  0  0  0  0  0  0
   -2.9022    5.2780   -0.6902 C   0  0  0  0  0  0  0  0  0  0  0  0
   -1.9980    3.8634   -0.3219 Cl  0  0  0  0  0  0  0  0  0  0  0  0
   -4.9573    4.6577   -3.6620 C   0  0  0  0  0  0  0  0  0  0  0  0
   -5.5222    3.7199   -4.5609 C   0  0  0  0  0  0  0  0  0  0  0  0
   -5.9182    2.4505   -4.0956 C   0  0  0  0  0  0  0  0  0  0  0  0
   -6.5949    1.4859   -4.9423 C   0  0  0  0  0  0  0  0  0  0  0  0
   -6.0776    1.1337   -6.5657 S   0  0  0  0  0  0  0  0  0  0  0  0
   -7.3048   -0.0634   -6.7926 C   0  0  0  0  0  0  0  0  0  0  0  0
   -7.3890   -0.8378   -8.0608 C   0  0  0  0  0  0  0  0  0  0  0  0
   -6.1738   -1.7507   -8.2327 C   0  0  0  0  0  0  0  0  0  0  0  0
   -8.0749   -0.1647   -5.6731 C   0  0  0  0  0  0  0  0  0  0  0  0
   -7.6819    0.7123   -4.6267 C   0  0  0  0  0  0  0  0  0  0  0  0
   -8.5701    0.8294   -3.1659 Cl  0  0  0  0  0  0  0  0  0  0  0  0
   -9.4055   -1.2376   -5.5148 Cl  0  0  0  0  0  0  0  0  0  0  0  0
   -5.5837    2.1476   -2.7810 C   0  0  0  0  0  0  0  0  0  0  0  0
   -5.6134    0.5475   -2.0908 S   0  0  0  0  0  0  0  0  0  0  0  0
   -5.5064    4.1952   -5.8938 C   0  0  0  0  0  0  0  0  0  0  0  0
   -4.9306    5.4251   -6.0228 C   0  0  0  0  0  0  0  0  0  0  0  0
   -4.4944    6.1178   -4.4839 S   0  0  0  0  0  0  0  0  0  0  0  0
   -4.5762    6.0960   -7.2270 C   0  0  0  0  0  0  0  0  0  0  0  0
   -4.8593    5.4040   -8.7872 S   0  0  0  0  0  0  0  0  0  0  0  0
   -4.0408    6.6982   -9.5639 C   0  0  0  0  0  0  0  0  0  0  0  0
   -3.5745    7.6266   -8.6793 C   0  0  0  0  0  0  0  0  0  0  0  0
   -2.9127    8.8080   -9.0271 N   0  0  0  0  0  0  0  0  0  0  0  0
   -1.7798    9.0727   -8.2734 O   0  0  0  0  0  0  0  0  0  0  0  0
   -2.5798    8.8125  -10.3999 O   0  0  0  0  0  0  0  0  0  0  0  0
   -3.8953    7.2913   -7.3326 C   0  0  0  0  0  0  0  0  0  0  0  0
   -3.6702    8.0550   -6.1715 N   0  0  0  0  0  0  0  0  0  0  0  0
   -3.7980    9.4205   -6.4179 O   0  0  0  0  0  0  0  0  0  0  0  0
   -2.3467    7.7380   -5.6417 O   0  0  0  0  0  0  0  0  0  0  0  0
   -1.8817    8.5671   -4.6941 C   0  0  0  0  0  0  0  0  0  0  0  0
   -1.0903    8.1701   -3.6864 C   0  0  0  0  0  0  0  0  0  0  0  0
   -0.7009    6.8363   -3.3511 C   0  0  0  0  0  0  0  0  0  0  0  0
    0.1738    6.5081   -2.3564 C   0  0  0  0  0  0  0  0  0  0  0  0
    0.3438    5.1166   -2.1784 C   0  0  0  0  0  0  0  0  0  0  0  0
    1.1145    4.4705   -1.1985 C   0  0  0  0  0  0  0  0  0  0  0  0
    1.9837    5.2036   -0.2974 C   0  0  0  0  0  0  0  0  0  0  0  0
    1.9384    4.9163    1.4142 S   0  0  0  0  0  0  0  0  0  0  0  0
    3.2084    6.0482    1.7225 C   0  0  0  0  0  0  0  0  0  0  0  0
    3.7411    6.2434    3.0992 C   0  0  0  0  0  0  0  0  0  0  0  0
    4.6947    5.1078    3.4783 C   0  0  0  0  0  0  0  0  0  0  0  0
    3.6352    6.6074    0.5549 C   0  0  0  0  0  0  0  0  0  0  0  0
    4.8946    7.7695    0.4525 Cl  0  0  0  0  0  0  0  0  0  0  0  0
    2.9408    6.1355   -0.5914 C   0  0  0  0  0  0  0  0  0  0  0  0
    3.3532    6.6292   -2.1836 Cl  0  0  0  0  0  0  0  0  0  0  0  0
    0.9884    3.0913   -1.1107 C   0  0  0  0  0  0  0  0  0  0  0  0
    0.1672    2.3281   -1.9752 C   0  0  0  0  0  0  0  0  0  0  0  0
   -0.5744    2.9745   -2.9916 C   0  0  0  0  0  0  0  0  0  0  0  0
   -1.4469    2.1984   -3.8541 C   0  0  0  0  0  0  0  0  0  0  0  0
   -2.4471    0.9462   -3.1707 S   0  0  0  0  0  0  0  0  0  0  0  0
   -3.0193    0.4234   -4.7172 C   0  0  0  0  0  0  0  0  0  0  0  0
   -3.8744   -0.7890   -4.8441 C   0  0  0  0  0  0  0  0  0  0  0  0
   -3.2638   -1.9844   -4.1135 C   0  0  0  0  0  0  0  0  0  0  0  0
   -2.5024    1.2220   -5.6924 C   0  0  0  0  0  0  0  0  0  0  0  0
   -1.6218    2.2300   -5.2113 C   0  0  0  0  0  0  0  0  0  0  0  0
   -0.7859    3.2659   -6.2877 Cl  0  0  0  0  0  0  0  0  0  0  0  0
   -2.8203    1.0285   -7.3659 Cl  0  0  0  0  0  0  0  0  0  0  0  0
   -0.4613    4.3610   -3.0714 C   0  0  0  0  0  0  0  0  0  0  0  0
   -1.3482    5.4165   -4.1390 S   0  0  0  0  0  0  0  0  0  0  0  0
    0.2497    0.9441   -1.6695 C   0  0  0  0  0  0  0  0  0  0  0  0
    1.0686    0.6585   -0.6182 C   0  0  0  0  0  0  0  0  0  0  0  0
    1.8164    2.0929    0.0473 S   0  0  0  0  0  0  0  0  0  0  0  0
    1.4293   -0.6150   -0.0886 C   0  0  0  0  0  0  0  0  0  0  0  0
    2.3653   -0.8498    0.8726 C   0  0  0  0  0  0  0  0  0  0  0  0
    2.6361   -2.2231    1.0871 C   0  0  0  0  0  0  0  0  0  0  0  0
    3.6200   -2.7822    1.9226 C   0  0  0  0  0  0  0  0  0  0  0  0
    4.4581   -1.9408    2.7587 C   0  0  0  0  0  0  0  0  0  0  0  0
    6.1915   -2.1106    2.7023 S   0  0  0  0  0  0  0  0  0  0  0  0
    6.4473   -0.7670    3.7587 C   0  0  0  0  0  0  0  0  0  0  0  0
    7.8186   -0.2895    4.0844 C   0  0  0  0  0  0  0  0  0  0  0  0
    8.3557    0.6212    2.9771 C   0  0  0  0  0  0  0  0  0  0  0  0
    5.2520   -0.2309    4.1314 C   0  0  0  0  0  0  0  0  0  0  0  0
    5.0839    1.1370    5.1573 Cl  0  0  0  0  0  0  0  0  0  0  0  0
    4.1265   -0.8946    3.5770 C   0  0  0  0  0  0  0  0  0  0  0  0
    2.5349   -0.4200    4.0015 Cl  0  0  0  0  0  0  0  0  0  0  0  0
    3.8284   -4.1524    1.8024 C   0  0  0  0  0  0  0  0  0  0  0  0
    3.1005   -4.9740    0.9080 C   0  0  0  0  0  0  0  0  0  0  0  0
    2.0883   -4.4196    0.1009 C   0  0  0  0  0  0  0  0  0  0  0  0
    1.4157   -5.2134   -0.9162 C   0  0  0  0  0  0  0  0  0  0  0  0
    1.3582   -4.6245   -2.5565 S   0  0  0  0  0  0  0  0  0  0  0  0
    0.6235   -6.0730   -3.1476 C   0  0  0  0  0  0  0  0  0  0  0  0
    0.3451   -6.2661   -4.5969 C   0  0  0  0  0  0  0  0  0  0  0  0
    1.5977   -6.7443   -5.3353 C   0  0  0  0  0  0  0  0  0  0  0  0
    0.4353   -6.9512   -2.1247 C   0  0  0  0  0  0  0  0  0  0  0  0
    0.8695   -6.4664   -0.8623 C   0  0  0  0  0  0  0  0  0  0  0  0
    0.6056   -7.3815    0.5565 Cl  0  0  0  0  0  0  0  0  0  0  0  0
   -0.2402   -8.5187   -2.3112 Cl  0  0  0  0  0  0  0  0  0  0  0  0
    1.8813   -3.0487    0.2171 C   0  0  0  0  0  0  0  0  0  0  0  0
    0.7735   -2.1015   -0.7453 S   0  0  0  0  0  0  0  0  0  0  0  0
    3.5985   -6.3098    0.9112 C   0  0  0  0  0  0  0  0  0  0  0  0
    4.6096   -6.4942    1.7836 C   0  0  0  0  0  0  0  0  0  0  0  0
    5.0500   -5.0644    2.6460 S   0  0  0  0  0  0  0  0  0  0  0  0
    7.1624   -9.3762    7.2980 H   0  0  0  0  0  0  0  0  0  0  0  0
    6.6907   -6.8332    7.5934 H   0  0  0  0  0  0  0  0  0  0  0  0
    6.1513   -0.7035    8.7787 H   0  0  0  0  0  0  0  0  0  0  0  0
    6.1038   -0.5431    7.0140 H   0  0  0  0  0  0  0  0  0  0  0  0
    8.3501   -1.8441    8.6328 H   0  0  0  0  0  0  0  0  0  0  0  0
    8.4243   -0.2638    7.8499 H   0  0  0  0  0  0  0  0  0  0  0  0
    8.3085   -1.7327    6.8711 H   0  0  0  0  0  0  0  0  0  0  0  0
    2.2156  -11.2765    0.3060 H   0  0  0  0  0  0  0  0  0  0  0  0
    1.6312  -12.6466    1.2711 H   0  0  0  0  0  0  0  0  0  0  0  0
   -0.0083  -10.1694    0.5386 H   0  0  0  0  0  0  0  0  0  0  0  0
   -0.1657  -11.7641   -0.2045 H   0  0  0  0  0  0  0  0  0  0  0  0
   -0.5904  -11.5351    1.4949 H   0  0  0  0  0  0  0  0  0  0  0  0
    1.0701   -6.9705    3.1618 H   0  0  0  0  0  0  0  0  0  0  0  0
    0.7833   -2.2782    4.0836 H   0  0  0  0  0  0  0  0  0  0  0  0
    1.6830    3.6056    3.8394 H   0  0  0  0  0  0  0  0  0  0  0  0
    1.1871    3.6021    5.5444 H   0  0  0  0  0  0  0  0  0  0  0  0
   -0.5486    4.4568    3.1718 H   0  0  0  0  0  0  0  0  0  0  0  0
   -1.0618    4.4723    4.8634 H   0  0  0  0  0  0  0  0  0  0  0  0
    0.2238    5.5542    4.3181 H   0  0  0  0  0  0  0  0  0  0  0  0
   -4.3355   -7.4321   -2.7335 H   0  0  0  0  0  0  0  0  0  0  0  0
   -2.5660   -7.3373   -2.6957 H   0  0  0  0  0  0  0  0  0  0  0  0
   -2.6638   -5.3325   -4.2003 H   0  0  0  0  0  0  0  0  0  0  0  0
   -3.3935   -6.7587   -4.9519 H   0  0  0  0  0  0  0  0  0  0  0  0
   -4.4228   -5.4947   -4.2757 H   0  0  0  0  0  0  0  0  0  0  0  0
   -4.4413   -1.6833   -0.7510 H   0  0  0  0  0  0  0  0  0  0  0  0
   -4.2576    3.0059    0.1889 H   0  0  0  0  0  0  0  0  0  0  0  0
   -2.0670    9.2127    0.0819 H   0  0  0  0  0  0  0  0  0  0  0  0
   -3.3517    9.6440   -1.0640 H   0  0  0  0  0  0  0  0  0  0  0  0
   -5.0643    9.1845    0.6939 H   0  0  0  0  0  0  0  0  0  0  0  0
   -3.9211   10.4240    1.2240 H   0  0  0  0  0  0  0  0  0  0  0  0
   -3.7809    8.7728    1.8355 H   0  0  0  0  0  0  0  0  0  0  0  0
   -8.3034   -1.4326   -8.0432 H   0  0  0  0  0  0  0  0  0  0  0  0
   -7.4404   -0.1472   -8.9058 H   0  0  0  0  0  0  0  0  0  0  0  0
   -6.2610   -2.3186   -9.1549 H   0  0  0  0  0  0  0  0  0  0  0  0
   -6.1030   -2.4468   -7.4004 H   0  0  0  0  0  0  0  0  0  0  0  0
   -5.2622   -1.1588   -8.2733 H   0  0  0  0  0  0  0  0  0  0  0  0
   -5.8515    3.6340   -6.7421 H   0  0  0  0  0  0  0  0  0  0  0  0
   -3.9424    6.7141  -10.6294 H   0  0  0  0  0  0  0  0  0  0  0  0
   -1.1733    8.3096   -8.2632 H   0  0  0  0  0  0  0  0  0  0  0  0
   -2.6301    9.7382  -10.6766 H   0  0  0  0  0  0  0  0  0  0  0  0
   -4.3539    9.7703   -5.7052 H   0  0  0  0  0  0  0  0  0  0  0  0
   -2.1151    9.6181   -4.8245 H   0  0  0  0  0  0  0  0  0  0  0  0
   -0.6756    8.9397   -3.0525 H   0  0  0  0  0  0  0  0  0  0  0  0
    0.6633    7.2467   -1.7491 H   0  0  0  0  0  0  0  0  0  0  0  0
    4.2705    7.1966    3.1398 H   0  0  0  0  0  0  0  0  0  0  0  0
    2.9125    6.2724    3.8094 H   0  0  0  0  0  0  0  0  0  0  0  0
    5.0647    5.2512    4.4899 H   0  0  0  0  0  0  0  0  0  0  0  0
    4.1836    4.1492    3.4265 H   0  0  0  0  0  0  0  0  0  0  0  0
    5.5419    5.0843    2.7973 H   0  0  0  0  0  0  0  0  0  0  0  0
   -3.9921   -1.0142   -5.9050 H   0  0  0  0  0  0  0  0  0  0  0  0
   -4.8637   -0.5915   -4.4231 H   0  0  0  0  0  0  0  0  0  0  0  0
   -2.2893   -2.2306   -4.5286 H   0  0  0  0  0  0  0  0  0  0  0  0
   -3.1401   -1.7582   -3.0568 H   0  0  0  0  0  0  0  0  0  0  0  0
   -3.9140   -2.8495   -4.2093 H   0  0  0  0  0  0  0  0  0  0  0  0
   -0.2558    0.1667   -2.2118 H   0  0  0  0  0  0  0  0  0  0  0  0
    2.8888   -0.0508    1.3636 H   0  0  0  0  0  0  0  0  0  0  0  0
    8.4817   -1.1482    4.1992 H   0  0  0  0  0  0  0  0  0  0  0  0
    7.7869    0.2618    5.0254 H   0  0  0  0  0  0  0  0  0  0  0  0
    9.3570    0.9615    3.2258 H   0  0  0  0  0  0  0  0  0  0  0  0
    8.3928    0.0842    2.0332 H   0  0  0  0  0  0  0  0  0  0  0  0
    7.7123    1.4894    2.8573 H   0  0  0  0  0  0  0  0  0  0  0  0
    0.0097   -5.3222   -5.0294 H   0  0  0  0  0  0  0  0  0  0  0  0
   -0.4487   -7.0067   -4.7073 H   0  0  0  0  0  0  0  0  0  0  0  0
    1.9384   -7.6919   -4.9262 H   0  0  0  0  0  0  0  0  0  0  0  0
    2.3965   -6.0140   -5.2329 H   0  0  0  0  0  0  0  0  0  0  0  0
    1.3798   -6.8791   -6.3911 H   0  0  0  0  0  0  0  0  0  0  0  0
    3.2265   -7.0904    0.2768 H   0  0  0  0  0  0  0  0  0  0  0  0
    5.1501   -7.3990    1.9797 H   0  0  0  0  0  0  0  0  0  0  0  0
  1  2  2  0  0  0  0
  2  3  1  0  0  0  0
  3  4  2  0  0  0  0
  4  5  1  0  0  0  0
  5  6  1  0  0  0  0
  6  7  1  0  0  0  0
  7  8  1  0  0  0  0
  8  9  1  0  0  0  0
  7 10  2  0  0  0  0
 10 11  1  0  0  0  0
 10 12  1  0  0  0  0
 12 13  1  0  0  0  0
  4 14  1  0  0  0  0
 14 15  2  0  0  0  0
 15 16  1  0  0  0  0
 16 17  1  0  0  0  0
 17 18  1  0  0  0  0
 18 19  1  0  0  0  0
 19 20  1  0  0  0  0
 20 21  1  0  0  0  0
 19 22  2  0  0  0  0
 22 23  1  0  0  0  0
 23 24  1  0  0  0  0
 22 25  1  0  0  0  0
 16 26  2  0  0  0  0
 26 27  1  0  0  0  0
 15 28  1  0  0  0  0
 28 29  2  0  0  0  0
 29 30  1  0  0  0  0
 29 31  1  0  0  0  0
 31 32  2  0  0  0  0
 32 33  1  0  0  0  0
 33 34  2  0  0  0  0
 34 35  1  0  0  0  0
 35 36  1  0  0  0  0
 36 37  1  0  0  0  0
 37 38  1  0  0  0  0
 38 39  1  0  0  0  0
 37 40  2  0  0  0  0
 40 41  1  0  0  0  0
 40 42  1  0  0  0  0
 42 43  1  0  0  0  0
 34 44  1  0  0  0  0
 44 45  2  0  0  0  0
 45 46  1  0  0  0  0
 46 47  1  0  0  0  0
 47 48  1  0  0  0  0
 48 49  1  0  0  0  0
 49 50  1  0  0  0  0
 50 51  1  0  0  0  0
 49 52  2  0  0  0  0
 52 53  1  0  0  0  0
 53 54  1  0  0  0  0
 52 55  1  0  0  0  0
 46 56  2  0  0  0  0
 56 57  1  0  0  0  0
 45 58  1  0  0  0  0
 58 59  2  0  0  0  0
 59 60  1  0  0  0  0
 59 61  1  0  0  0  0
 61 62  2  0  0  0  0
 62 63  1  0  0  0  0
 63 64  2  0  0  0  0
 64 65  1  0  0  0  0
 65 66  1  0  0  0  0
 66 67  1  0  0  0  0
 67 68  1  0  0  0  0
 68 69  1  0  0  0  0
 67 70  2  0  0  0  0
 70 71  1  0  0  0  0
 70 72  1  0  0  0  0
 72 73  1  0  0  0  0
 64 74  1  0  0  0  0
 74 75  2  0  0  0  0
 75 76  1  0  0  0  0
 76 77  1  0  0  0  0
 77 78  1  0  0  0  0
 78 79  1  0  0  0  0
 79 80  1  0  0  0  0
 80 81  1  0  0  0  0
 79 82  2  0  0  0  0
 82 83  1  0  0  0  0
 83 84  1  0  0  0  0
 82 85  1  0  0  0  0
 76 86  2  0  0  0  0
 86 87  1  0  0  0  0
 75 88  1  0  0  0  0
 88 89  2  0  0  0  0
 89 90  1  0  0  0  0
 89 91  1  0  0  0  0
 91 92  1  0  0  0  0
 92 93  1  0  0  0  0
 93 94  2  0  0  0  0
 94 95  1  0  0  0  0
 95 96  1  0  0  0  0
 95 97  1  0  0  0  0
 94 98  1  0  0  0  0
 98 99  1  0  0  0  0
 99100  1  0  0  0  0
 99101  1  0  0  0  0
101102  1  0  0  0  0
102103  2  0  0  0  0
103104  1  0  0  0  0
104105  2  0  0  0  0
105106  1  0  0  0  0
106107  2  0  0  0  0
107108  1  0  0  0  0
108109  1  0  0  0  0
109110  1  0  0  0  0
110111  1  0  0  0  0
111112  1  0  0  0  0
110113  2  0  0  0  0
113114  1  0  0  0  0
113115  1  0  0  0  0
115116  1  0  0  0  0
107117  1  0  0  0  0
117118  2  0  0  0  0
118119  1  0  0  0  0
119120  1  0  0  0  0
120121  1  0  0  0  0
121122  1  0  0  0  0
122123  1  0  0  0  0
123124  1  0  0  0  0
122125  2  0  0  0  0
125126  1  0  0  0  0
126127  1  0  0  0  0
125128  1  0  0  0  0
119129  2  0  0  0  0
129130  1  0  0  0  0
118131  1  0  0  0  0
131132  2  0  0  0  0
132133  1  0  0  0  0
132134  1  0  0  0  0
134135  2  0  0  0  0
135136  1  0  0  0  0
136137  2  0  0  0  0
137138  1  0  0  0  0
138139  1  0  0  0  0
139140  1  0  0  0  0
140141  1  0  0  0  0
141142  1  0  0  0  0
140143  2  0  0  0  0
143144  1  0  0  0  0
143145  1  0  0  0  0
145146  1  0  0  0  0
137147  1  0  0  0  0
147148  2  0  0  0  0
148149  1  0  0  0  0
149150  1  0  0  0  0
150151  1  0  0  0  0
151152  1  0  0  0  0
152153  1  0  0  0  0
153154  1  0  0  0  0
152155  2  0  0  0  0
155156  1  0  0  0  0
156157  1  0  0  0  0
155158  1  0  0  0  0
149159  2  0  0  0  0
159160  1  0  0  0  0
148161  1  0  0  0  0
161162  2  0  0  0  0
162163  1  0  0  0  0
 27  1  1  0  0  0  0
 57 31  1  0  0  0  0
 87 61  1  0  0  0  0
 98 91  2  0  0  0  0
130104  1  0  0  0  0
160134  1  0  0  0  0
 26  3  1  0  0  0  0
 56 33  1  0  0  0  0
 86 63  1  0  0  0  0
129106  1  0  0  0  0
159136  1  0  0  0  0
 12  5  2  0  0  0  0
 30 14  1  0  0  0  0
 42 35  2  0  0  0  0
 60 44  1  0  0  0  0
 72 65  2  0  0  0  0
 90 74  1  0  0  0  0
115108  2  0  0  0  0
133117  1  0  0  0  0
145138  2  0  0  0  0
163147  1  0  0  0  0
 23 17  2  0  0  0  0
 53 47  2  0  0  0  0
 83 77  2  0  0  0  0
126120  2  0  0  0  0
156150  2  0  0  0  0
  1164  1  0  0  0  0
  2165  1  0  0  0  0
  8166  1  0  0  0  0
  8167  1  0  0  0  0
  9168  1  0  0  0  0
  9169  1  0  0  0  0
  9170  1  0  0  0  0
 20171  1  0  0  0  0
 20172  1  0  0  0  0
 21173  1  0  0  0  0
 21174  1  0  0  0  0
 21175  1  0  0  0  0
 28176  1  0  0  0  0
 32177  1  0  0  0  0
 38178  1  0  0  0  0
 38179  1  0  0  0  0
 39180  1  0  0  0  0
 39181  1  0  0  0  0
 39182  1  0  0  0  0
 50183  1  0  0  0  0
 50184  1  0  0  0  0
 51185  1  0  0  0  0
 51186  1  0  0  0  0
 51187  1  0  0  0  0
 58188  1  0  0  0  0
 62189  1  0  0  0  0
 68190  1  0  0  0  0
 68191  1  0  0  0  0
 69192  1  0  0  0  0
 69193  1  0  0  0  0
 69194  1  0  0  0  0
 80195  1  0  0  0  0
 80196  1  0  0  0  0
 81197  1  0  0  0  0
 81198  1  0  0  0  0
 81199  1  0  0  0  0
 88200  1  0  0  0  0
 93201  1  0  0  0  0
 96202  1  0  0  0  0
 97203  1  0  0  0  0
100204  1  0  0  0  0
102205  1  0  0  0  0
103206  1  0  0  0  0
105207  1  0  0  0  0
111208  1  0  0  0  0
111209  1  0  0  0  0
112210  1  0  0  0  0
112211  1  0  0  0  0
112212  1  0  0  0  0
123213  1  0  0  0  0
123214  1  0  0  0  0
124215  1  0  0  0  0
124216  1  0  0  0  0
124217  1  0  0  0  0
131218  1  0  0  0  0
135219  1  0  0  0  0
141220  1  0  0  0  0
141221  1  0  0  0  0
142222  1  0  0  0  0
142223  1  0  0  0  0
142224  1  0  0  0  0
153225  1  0  0  0  0
153226  1  0  0  0  0
154227  1  0  0  0  0
154228  1  0  0  0  0
154229  1  0  0  0  0
161230  1  0  0  0  0
162231  1  0  0  0  0
M  END
