234

C          3.22940       -7.23470        9.99130
C          4.38310       -7.22220       10.69060
S          5.48640       -5.98730       10.18230
C          4.35790       -5.45420        8.97660
C          3.18050       -6.22410        8.98680
C          2.15970       -5.95280        8.06740
C          2.29260       -4.94150        7.13890
C          3.45220       -4.12800        7.16170
C          4.48090       -4.40280        8.07830
S          5.79080       -3.27150        7.93440
C          4.94070       -2.42210        6.68790
C          3.74480       -2.96960        6.38660
C          1.27090       -4.72920        6.12840
C          1.45280       -4.52180        4.79970
C          0.24020       -4.42060        4.06500
C          0.07570       -4.19410        2.69170
C          1.19530       -3.96950        1.76700
C          2.28040       -4.83170        1.65630
C          3.28600       -4.59480        0.73680
C          3.23070       -3.50100       -0.11780
S          4.45240       -3.09690       -1.32720
C          5.23680       -4.70210       -1.70270
C          4.27130       -5.66820       -2.36030
C          2.13820       -2.64490        0.00620
F          2.02470       -1.58760       -0.82550
C          1.14650       -2.85180        0.93450
C         -1.23080       -4.10520        2.23270
C         -2.36450       -4.12320        3.07990
C         -2.19560       -4.31630        4.46040
C         -3.32820       -4.24360        5.38950
C         -3.54490       -5.22790        6.34810
C         -4.59150       -5.13360        7.24470
C         -5.44920       -4.04030        7.22450
S         -6.81710       -3.80360        8.31180
C         -6.43620       -4.88630        9.73220
C         -5.22220       -4.41140       10.50760
C         -5.22530       -3.06600        6.25070
C         -4.19350       -3.15080        5.34440
F         -6.04170       -1.99220        6.19840
C         -0.89660       -4.51660        4.90620
S         -0.42520       -4.79370        6.56350
C         -3.56670       -3.90340        2.35790
C         -3.36980       -3.73500        1.02090
S         -1.68750       -3.92130        0.56590
C         -4.27440       -3.25690        0.02950
C         -3.93750       -2.91590       -1.24570
C         -4.95900       -2.23000       -1.94360
C         -4.86880       -1.62180       -3.20520
C         -3.57660       -1.43580       -3.87490
C         -2.50210       -0.97120       -3.11640
C         -1.29230       -0.65690       -3.69650
C         -1.10440       -0.79650       -5.06650
S          0.38510       -0.37260       -5.90590
C          1.67020       -0.50560       -4.60980
C          1.84570       -1.92240       -4.10370
C         -2.18640       -1.25870       -5.81750
F         -2.04640       -1.40700       -7.14950
C         -3.40300       -1.57460       -5.24920
C         -6.01370       -0.98330       -3.65930
C         -7.16390       -0.77860       -2.85750
C         -7.22380       -1.33700       -1.57100
C         -8.30690       -1.03350       -0.62610
C         -8.97730       -2.04520        0.05770
C         -9.95120       -1.73990        0.98390
C        -10.28100       -0.41920        1.28590
S        -11.48450       -0.16140        2.55520
C        -12.43800        1.29920        1.99760
C        -13.07280        1.07950        0.63940
C         -9.58220        0.58020        0.61630
C         -8.62570        0.28910       -0.33490
F         -9.79980        1.88800        0.88970
C         -6.13500       -2.09870       -1.16630
S         -5.92570       -2.81510        0.41400
C         -8.06200        0.15490       -3.45910
C         -7.61460        0.65250       -4.63690
S         -6.12500       -0.11670       -5.16300
C         -7.99390        1.86010       -5.35250
C         -9.13980        2.17970       -5.99850
S         -9.10050        3.74450       -6.74610
C         -7.47870        4.01070       -6.17850
C         -7.02130        2.91920       -5.42960
C         -5.75510        2.94940       -4.84660
C         -4.88640        4.00410       -5.04250
C         -5.32630        5.10120       -5.82390
C         -6.62900        5.09530       -6.36720
S         -6.96390        6.54920       -7.25280
C         -5.38560        7.15320       -6.89160
C         -4.64250        6.30770       -6.14610
C         -3.56640        3.87140       -4.45010
C         -3.28160        3.17280       -3.31520
C         -1.89810        3.06550       -3.01560
C         -1.27940        2.39860       -1.93660
C         -2.05660        1.80190       -0.84370
C         -3.20530        2.41450       -0.33940
C         -3.96970        1.82960        0.65320
C         -3.59200        0.61920        1.22510
S         -4.46500       -0.25240        2.47790
C         -6.13010        0.50470        2.44470
C         -7.08690       -0.38550        3.21380
C         -2.39410        0.06320        0.77820
F         -1.94250       -1.06240        1.37030
C         -1.65400        0.60490       -0.24530
C          0.11300        2.33830       -1.97420
C          0.87880        2.92810       -3.01010
C          0.26010        3.61710       -4.06410
C          1.08540        4.19690       -5.13260
C          1.06700        5.55700       -5.41820
C          1.94060        6.09830       -6.34280
C          2.86040        5.29810       -7.01120
S          4.04920        5.88420       -8.17570
C          4.36890        7.59560       -7.62320
C          5.00160        7.64040       -6.24620
C          2.82390        3.92650       -6.75790
C          1.96180        3.37460       -5.83820
F          3.68140        3.11220       -7.40470
C         -1.11940        3.68300       -4.02760
S         -2.11490        4.44600       -5.23770
C          2.27130        2.75210       -2.82200
C          2.58730        2.04260       -1.70240
S          1.16580        1.57740       -0.80100
C          3.90250        1.64360       -1.31120
C          5.06920        2.12410       -1.82810
C          6.22160        1.47430       -1.32290
C          7.56050        1.71350       -1.66990
C          7.89050        2.71590       -2.69100
C          7.25340        2.70020       -3.93230
C          7.51810        3.67190       -4.87300
C          8.42080        4.70090       -4.61240
S          8.61890        5.94690       -5.85440
C         10.42270        6.25230       -5.88680
C         11.20510        4.98570       -6.16810
C          9.05240        4.70240       -3.37270
F          9.91940        5.68450       -3.04030
C          8.81150        3.72380       -2.42910
C          8.51570        0.96100       -1.00410
C          8.18810       -0.05090       -0.06770
C          6.84720       -0.31520        0.24900
C          6.45540       -1.41440        1.13840
C          5.51620       -1.22930        2.15080
C          5.12880       -2.28020        2.95450
C          5.65360       -3.55670        2.77890
S          5.07400       -4.85170        3.83970
C          6.60450       -5.74580        4.29820
C          7.63980       -4.83200        4.91980
C          6.56420       -3.73520        1.74320
C          6.97600       -2.69050        0.94250
F          7.06410       -4.96500        1.47090
C          5.89230        0.48620       -0.36330
S          4.17050        0.38230       -0.13330
C          9.36090       -0.67060        0.45990
C         10.50040       -0.17650       -0.06390
S         10.24240        1.07560       -1.23010
H          2.42810       -7.92990       10.16630
H          4.67780       -7.86880       11.49390
H          1.26820       -6.56190        8.07380
H          5.40060       -1.55380        6.25790
H          3.06480       -2.56370        5.66040
H          2.42410       -4.47600        4.34220
H          2.33640       -5.70960        2.28110
H          4.11370       -5.28350        0.68560
H          5.66800       -5.10740       -0.78920
H          6.04720       -4.43590       -2.38150
H          4.78670       -6.59440       -2.60650
H          3.44020       -5.89850       -1.69650
H          3.87110       -5.23680       -3.27500
H          0.33830       -2.14270        1.00620
H         -2.89870       -6.09170        6.38230
H         -4.73700       -5.92700        7.95970
H         -6.32830       -5.91000        9.37580
H         -7.33630       -4.82640       10.34400
H         -5.37730       -3.39440       10.86010
H         -5.05640       -5.05700       11.36800
H         -4.33010       -4.42600        9.88460
H         -4.04770       -2.35360        4.63160
H         -4.53900       -3.84390        2.81260
H         -2.97240       -3.13430       -1.66630
H         -2.63110       -0.81380       -2.05730
H         -0.49430       -0.28490       -3.07560
H          1.43880        0.19150       -3.80620
H          2.57300       -0.16400       -5.11720
H          2.09290       -2.58910       -4.92680
H          0.93620       -2.28150       -3.62670
H          2.65050       -1.94850       -3.37240
H         -4.19500       -1.94250       -5.88240
H         -8.74510       -3.07720       -0.15470
H        -10.47530       -2.52590        1.50440
H        -13.19640        1.40850        2.77280
H        -11.79120        2.17350        2.00990
H        -12.31240        0.96490       -0.13090
H        -13.69410        1.93530        0.38300
H        -13.69340        0.18590        0.64780
H         -8.10520        1.10560       -0.81300
H         -8.97340        0.48440       -2.99360
H        -10.02200        1.57970       -6.10760
H         -5.42820        2.11170       -4.25560
H         -5.10930        8.11930       -7.26570
H         -3.63970        6.52560       -5.82790
H         -4.04440        2.72200       -2.70820
H         -3.49590        3.38640       -0.70680
H         -4.85720        2.33570        0.99840
H         -6.06300        1.49340        2.89930
H         -6.42900        0.58740        1.39930
H         -8.07590        0.06610        3.23290
H         -7.16200       -1.36130        2.73870
H         -6.75070       -0.52080        4.23850
H         -0.77460        0.07330       -0.57020
H          0.37970        6.20330       -4.89330
H          1.90760        7.15860       -6.53620
H          3.44020        8.16310       -7.67340
H          5.05310        7.98080       -8.37860
H          5.93030        7.07380       -6.23850
H          4.33260        7.21970       -5.49760
H          5.22170        8.67080       -5.97450
H          1.96950        2.30790       -5.67960
H          3.00630        3.13170       -3.50660
H          5.11140        2.93200       -2.53450
H          6.56330        1.90410       -4.16680
H          7.02270        3.65390       -5.83160
H         10.53910        6.97540       -6.69430
H         10.71970        6.71660       -4.94890
H         10.86780        4.52610       -7.09490
H         12.26330        5.22210       -6.25900
H         11.08250        4.26580       -5.36060
H          9.31890        3.78370       -1.47900
H          5.10380       -0.24820        2.32650
H          4.40780       -2.12750        3.74070
H          6.98860       -6.25710        3.41760
H          6.25210       -6.48740        5.01530
H          7.97190       -4.07830        4.20760
H          8.50330       -5.41760        5.22830
H          7.23260       -4.32720        5.79290
H          7.66820       -2.89010        0.13910
H          9.33750       -1.43650        1.21380
H         11.50880       -0.46270        0.16320
