126

C          7.04980       -6.20450       -5.45610
S          6.24210       -7.58100       -4.77230
C          4.71230       -6.85130       -5.10150
C          3.33590       -7.06610       -4.96250
C          2.69800       -5.93520       -5.50110
N          3.63450       -5.05350       -5.97640
C          3.37610       -3.73560       -6.49130
C          3.30840       -2.69590       -5.37310
C          4.86590       -5.59780       -5.71710
C          6.21360       -5.23640       -5.91560
C          1.29780       -5.99240       -5.42070
C          0.87110       -7.15190       -4.82400
S          2.19360       -8.21070       -4.35400
C         -0.49130       -7.49610       -4.52390
C         -0.88910       -8.57660       -3.89780
C         -1.30490       -9.57540       -3.18810
C         -1.85300      -10.89900       -3.70940
C         -2.60680      -11.38430       -2.51580
C         -2.36800      -10.65150       -1.41750
C         -1.41940       -9.52900       -1.66670
C         -3.21230      -11.09810       -0.32010
C         -3.96270      -12.12390       -0.78680
C         -3.63080      -12.42540       -2.22160
C         -3.23490      -10.43430        0.96380
C         -2.11780       -9.94300        1.52560
C         -2.04110       -9.05020        2.63550
S         -3.45280       -8.13370        3.16080
C         -2.45040       -7.13970        4.15530
C         -2.47540       -5.95280        4.88880
C         -1.14940       -5.69740        5.29430
N         -0.32730       -6.69460        4.84050
C          1.08190       -6.82450        5.09780
C          1.34900       -7.65790        6.35020
C         -1.10750       -7.56840        4.12870
C         -0.88490       -8.64410        3.26180
C         -0.97240       -4.43680        5.87480
C         -2.14460       -3.71580        5.89820
S         -3.52100       -4.63490        5.28310
C         -2.27620       -2.31750        6.10950
S         -0.81030       -1.34880        6.28840
C         -1.72110        0.09070        6.01650
C         -1.54760        1.44230        5.72020
C         -2.82370        1.95630        5.41310
N         -3.76790        0.97240        5.56940
C         -5.15630        1.06470        5.20230
C         -5.36930        0.75460        3.72120
C         -3.09690       -0.18290        5.88290
C         -3.40520       -1.54700        5.94470
C         -2.79260        3.26090        4.90690
C         -1.50350        3.74150        4.81640
S         -0.30800        2.60630        5.43570
C         -1.05910        4.90830        4.13250
S          0.63710        5.37200        4.20090
C          0.37440        6.56070        2.97850
C          1.06030        7.46300        2.16200
C          0.11220        8.01300        1.27800
N         -1.12520        7.48290        1.53930
C         -2.36230        7.85430        0.90750
C         -3.03970        9.01500        1.63480
C         -0.97560        6.59980        2.57820
C         -1.78500        5.67250        3.24390
C          0.66990        8.87860        0.32650
C          2.02710        9.00210        0.48990
S          2.64540        8.06180        1.83990
C          2.95420        9.73630       -0.33240
C          2.65870       10.17340       -1.53210
C          2.35760       10.51880       -2.74300
C          2.58710        9.62730       -3.96120
C          2.03690       10.47160       -5.05500
C          1.57820       11.66190       -4.63570
C          1.73640       11.84670       -3.16260
C          1.06160       12.41550       -5.77010
C          1.22650       11.64180       -6.87140
C          1.86470       10.33080       -6.52620
C          0.47490       13.73710       -5.76600
C          0.31020       14.51300       -4.70060
H          8.12150       -6.20250       -5.47150
H          2.42860       -3.76040       -7.03720
H          4.17410       -3.47910       -7.19370
H          2.51560       -2.94830       -4.67280
H          4.25040       -2.66540       -4.83050
H          3.11020       -1.71110       -5.78770
H          6.55130       -4.32010       -6.36530
H          0.62480       -5.22820       -5.76690
H         -1.22850       -6.76600       -4.84300
H         -2.48060      -10.75420       -4.59140
H         -1.03860      -11.57680       -3.98770
H         -1.78860       -8.56560       -1.31110
H         -0.43870       -9.70140       -1.21230
H         -4.68910      -12.68850       -0.23100
H         -3.24820      -13.44200       -2.33940
H         -4.51020      -12.33560       -2.86360
H         -4.19560      -10.28850        1.44040
H         -1.15990      -10.18440        1.08220
H          1.54820       -7.29530        4.22770
H          1.50160       -5.82220        5.21720
H          0.93070       -8.65520        6.23450
H          2.41860       -7.74390        6.52120
H          0.89160       -7.18910        7.21830
H          0.07200       -9.09270        3.06320
H         -0.03680       -4.02690        6.21010
H         -5.50280        2.07670        5.42940
H         -5.71980        0.35820        5.81780
H         -4.80560        1.45270        3.10660
H         -5.03010       -0.25380        3.49670
H         -6.42320        0.83460        3.46910
H         -4.38260       -1.97590        5.81520
H         -3.65300        3.82070        4.58970
H         -2.14710        8.13490       -0.12730
H         -3.02030        6.98060        0.90080
H         -2.38890        9.88620        1.63810
H         -3.25280        8.73920        2.66500
H         -3.97180        9.27490        1.14040
H         -2.83360        5.52540        3.06200
H          0.13020        9.39310       -0.44770
H          3.94500        9.88810        0.07850
H          2.06520        8.67160       -3.85590
H          3.65060        9.40650       -4.09380
H          0.78310       12.00910       -2.65210
H          2.39810       12.68170       -2.91570
H          0.94860       11.90250       -7.87690
H          1.22610        9.48650       -6.79660
H          2.81480       10.19540       -7.04820
H          0.15440       14.08820       -6.73980
H          0.61410       14.20810       -3.71510
H         -0.13720       15.48920       -4.78080
