
  xtb     03012204373D
 energy: -385.222912445298 gnorm: 0.000617406841 xtb: 6.4.1 (unknown)
190211  0     0  0            999 V2000
   -0.7174   -7.3076    9.1234 C   0  0  0  0  0  0  0  0  0  0  0  0
   -0.2349   -6.1507    8.6263 C   0  0  0  0  0  0  0  0  0  0  0  0
   -1.0685   -5.5942    7.6130 C   0  0  0  0  0  0  0  0  0  0  0  0
   -0.8556   -4.4357    6.8505 C   0  0  0  0  0  0  0  0  0  0  0  0
    0.2753   -3.5535    7.0908 C   0  0  0  0  0  0  0  0  0  0  0  0
    1.3414   -3.0769    5.8024 S   0  0  0  0  0  0  0  0  0  0  0  0
    2.2923   -2.0796    6.8512 C   0  0  0  0  0  0  0  0  0  0  0  0
    3.4406   -1.2920    6.3244 C   0  0  0  0  0  0  0  0  0  0  0  0
    2.9723   -0.2302    5.3297 C   0  0  0  0  0  0  0  0  0  0  0  0
    1.7969   -2.1222    8.1200 C   0  0  0  0  0  0  0  0  0  0  0  0
    2.4652   -1.2578    9.4441 Cl  0  0  0  0  0  0  0  0  0  0  0  0
    0.6568   -2.9594    8.2611 C   0  0  0  0  0  0  0  0  0  0  0  0
   -0.1901   -3.1229    9.7452 Cl  0  0  0  0  0  0  0  0  0  0  0  0
   -1.7761   -4.1674    5.8456 C   0  0  0  0  0  0  0  0  0  0  0  0
   -2.9021   -4.9852    5.5866 C   0  0  0  0  0  0  0  0  0  0  0  0
   -3.1311   -6.1294    6.3693 C   0  0  0  0  0  0  0  0  0  0  0  0
   -4.2671   -6.9982    6.1107 C   0  0  0  0  0  0  0  0  0  0  0  0
   -4.5490   -7.6409    4.5184 S   0  0  0  0  0  0  0  0  0  0  0  0
   -5.9587   -8.5066    5.0291 C   0  0  0  0  0  0  0  0  0  0  0  0
   -6.7614   -9.2987    4.0569 C   0  0  0  0  0  0  0  0  0  0  0  0
   -7.4101   -8.3948    3.0072 C   0  0  0  0  0  0  0  0  0  0  0  0
   -6.1843   -8.2980    6.3564 C   0  0  0  0  0  0  0  0  0  0  0  0
   -5.2251   -7.4491    6.9746 C   0  0  0  0  0  0  0  0  0  0  0  0
   -5.3386   -6.9823    8.6192 Cl  0  0  0  0  0  0  0  0  0  0  0  0
   -7.4942   -8.9823    7.2283 Cl  0  0  0  0  0  0  0  0  0  0  0  0
   -2.2032   -6.4060    7.3672 C   0  0  0  0  0  0  0  0  0  0  0  0
   -2.2075   -7.8051    8.4022 S   0  0  0  0  0  0  0  0  0  0  0  0
   -3.6870   -4.4796    4.5198 C   0  0  0  0  0  0  0  0  0  0  0  0
   -3.1883   -3.3340    3.9771 C   0  0  0  0  0  0  0  0  0  0  0  0
   -1.7213   -2.8011    4.7729 S   0  0  0  0  0  0  0  0  0  0  0  0
   -3.6589   -2.6154    2.8402 C   0  0  0  0  0  0  0  0  0  0  0  0
   -3.0991   -1.4953    2.3054 C   0  0  0  0  0  0  0  0  0  0  0  0
   -3.6822   -1.1043    1.0773 C   0  0  0  0  0  0  0  0  0  0  0  0
   -3.2764   -0.0504    0.2423 C   0  0  0  0  0  0  0  0  0  0  0  0
   -2.2341    0.8469    0.7228 C   0  0  0  0  0  0  0  0  0  0  0  0
   -0.6696    1.0079   -0.0164 S   0  0  0  0  0  0  0  0  0  0  0  0
   -0.0946    2.0406    1.2501 C   0  0  0  0  0  0  0  0  0  0  0  0
    1.3088    2.5353    1.2770 C   0  0  0  0  0  0  0  0  0  0  0  0
    2.1174    1.8806    2.3985 C   0  0  0  0  0  0  0  0  0  0  0  0
   -1.0744    2.2544    2.1730 C   0  0  0  0  0  0  0  0  0  0  0  0
   -0.8924    3.2504    3.5559 Cl  0  0  0  0  0  0  0  0  0  0  0  0
   -2.2829    1.5705    1.8819 C   0  0  0  0  0  0  0  0  0  0  0  0
   -3.6811    1.6863    2.8690 Cl  0  0  0  0  0  0  0  0  0  0  0  0
   -3.9114    0.0563   -0.9839 C   0  0  0  0  0  0  0  0  0  0  0  0
   -4.9683   -0.8029   -1.3806 C   0  0  0  0  0  0  0  0  0  0  0  0
   -5.4172   -1.8160   -0.5126 C   0  0  0  0  0  0  0  0  0  0  0  0
   -6.5463   -2.6616   -0.8577 C   0  0  0  0  0  0  0  0  0  0  0  0
   -6.4575   -4.3932   -0.7349 S   0  0  0  0  0  0  0  0  0  0  0  0
   -8.0955   -4.5919   -1.2542 C   0  0  0  0  0  0  0  0  0  0  0  0
   -8.7221   -5.9404   -1.3219 C   0  0  0  0  0  0  0  0  0  0  0  0
   -9.2355   -6.3685    0.0552 C   0  0  0  0  0  0  0  0  0  0  0  0
   -8.6689   -3.3783   -1.4930 C   0  0  0  0  0  0  0  0  0  0  0  0
   -7.7927   -2.2816   -1.2756 C   0  0  0  0  0  0  0  0  0  0  0  0
   -8.3027   -0.6510   -1.4403 Cl  0  0  0  0  0  0  0  0  0  0  0  0
  -10.2915   -3.1704   -2.0113 Cl  0  0  0  0  0  0  0  0  0  0  0  0
   -4.7304   -1.9698    0.6852 C   0  0  0  0  0  0  0  0  0  0  0  0
   -4.9959   -3.2143    1.8765 S   0  0  0  0  0  0  0  0  0  0  0  0
   -5.4109   -0.5191   -2.6985 C   0  0  0  0  0  0  0  0  0  0  0  0
   -4.7516    0.5192   -3.2845 C   0  0  0  0  0  0  0  0  0  0  0  0
   -3.5384    1.2193   -2.2210 S   0  0  0  0  0  0  0  0  0  0  0  0
   -4.8803    1.0441   -4.6071 C   0  0  0  0  0  0  0  0  0  0  0  0
   -6.0865    0.5375   -5.7455 S   0  0  0  0  0  0  0  0  0  0  0  0
   -5.4095    1.5664   -6.9700 C   0  0  0  0  0  0  0  0  0  0  0  0
   -5.9991    1.5942   -8.2897 C   0  0  0  0  0  0  0  0  0  0  0  0
   -5.5444    2.1881   -9.2426 O   0  0  0  0  0  0  0  0  0  0  0  0
   -7.1270    0.8696   -8.3677 O   0  0  0  0  0  0  0  0  0  0  0  0
   -4.3122    2.2835   -6.5111 C   0  0  0  0  0  0  0  0  0  0  0  0
   -4.0375    1.9717   -5.1602 C   0  0  0  0  0  0  0  0  0  0  0  0
   -3.4378    3.1802   -7.2259 C   0  0  0  0  0  0  0  0  0  0  0  0
   -3.1960    3.2845   -8.9363 S   0  0  0  0  0  0  0  0  0  0  0  0
   -1.7682    4.2508   -8.7085 C   0  0  0  0  0  0  0  0  0  0  0  0
   -0.9911    4.6731   -9.8605 C   0  0  0  0  0  0  0  0  0  0  0  0
    0.0905    5.2107   -9.8207 O   0  0  0  0  0  0  0  0  0  0  0  0
   -1.6094    4.3871  -11.0194 O   0  0  0  0  0  0  0  0  0  0  0  0
   -1.5271    4.5304   -7.3716 C   0  0  0  0  0  0  0  0  0  0  0  0
   -2.5157    3.9470   -6.5579 C   0  0  0  0  0  0  0  0  0  0  0  0
   -0.3656    5.0580   -6.6904 C   0  0  0  0  0  0  0  0  0  0  0  0
    0.9525    4.7943   -6.9050 C   0  0  0  0  0  0  0  0  0  0  0  0
    1.7434    4.8661   -5.7212 C   0  0  0  0  0  0  0  0  0  0  0  0
    3.0599    4.3919   -5.5379 C   0  0  0  0  0  0  0  0  0  0  0  0
    3.9197    4.1769   -6.6810 C   0  0  0  0  0  0  0  0  0  0  0  0
    4.9372    2.7743   -6.8396 S   0  0  0  0  0  0  0  0  0  0  0  0
    5.5617    3.3022   -8.3632 C   0  0  0  0  0  0  0  0  0  0  0  0
    6.5205    2.4674   -9.1375 C   0  0  0  0  0  0  0  0  0  0  0  0
    5.7785    1.4889  -10.0514 C   0  0  0  0  0  0  0  0  0  0  0  0
    5.0068    4.4968   -8.7162 C   0  0  0  0  0  0  0  0  0  0  0  0
    5.3926    5.3359  -10.1607 Cl  0  0  0  0  0  0  0  0  0  0  0  0
    4.0781    4.9998   -7.7679 C   0  0  0  0  0  0  0  0  0  0  0  0
    3.3165    6.5228   -7.9554 Cl  0  0  0  0  0  0  0  0  0  0  0  0
    3.4296    4.0751   -4.2303 C   0  0  0  0  0  0  0  0  0  0  0  0
    2.5868    4.3292   -3.1249 C   0  0  0  0  0  0  0  0  0  0  0  0
    1.3456    4.9622   -3.2886 C   0  0  0  0  0  0  0  0  0  0  0  0
    0.4335    5.0966   -2.1639 C   0  0  0  0  0  0  0  0  0  0  0  0
   -1.1420    4.3533   -2.2153 S   0  0  0  0  0  0  0  0  0  0  0  0
   -1.4936    4.7944   -0.5805 C   0  0  0  0  0  0  0  0  0  0  0  0
   -2.8154    4.4756    0.0238 C   0  0  0  0  0  0  0  0  0  0  0  0
   -3.9003    5.4190   -0.4986 C   0  0  0  0  0  0  0  0  0  0  0  0
   -0.4494    5.4842   -0.0420 C   0  0  0  0  0  0  0  0  0  0  0  0
    0.6499    5.6428   -0.9311 C   0  0  0  0  0  0  0  0  0  0  0  0
    2.0805    6.4847   -0.4936 Cl  0  0  0  0  0  0  0  0  0  0  0  0
   -0.4287    6.0993    1.5609 Cl  0  0  0  0  0  0  0  0  0  0  0  0
    0.9539    5.1997   -4.5946 C   0  0  0  0  0  0  0  0  0  0  0  0
   -0.6530    5.6543   -5.0590 S   0  0  0  0  0  0  0  0  0  0  0  0
    3.0340    3.6779   -1.9513 C   0  0  0  0  0  0  0  0  0  0  0  0
    4.1653    2.9511   -2.1249 C   0  0  0  0  0  0  0  0  0  0  0  0
    4.8198    3.1302   -3.7415 S   0  0  0  0  0  0  0  0  0  0  0  0
    4.5603    1.9365   -1.1710 C   0  0  0  0  0  0  0  0  0  0  0  0
    3.7105    0.9277   -0.8418 C   0  0  0  0  0  0  0  0  0  0  0  0
    4.1889    0.0903    0.1975 C   0  0  0  0  0  0  0  0  0  0  0  0
    3.5396   -1.0100    0.7827 C   0  0  0  0  0  0  0  0  0  0  0  0
    2.3051   -1.5345    0.2228 C   0  0  0  0  0  0  0  0  0  0  0  0
    2.2130   -1.8451   -1.4900 S   0  0  0  0  0  0  0  0  0  0  0  0
    0.6275   -2.5171   -1.3707 C   0  0  0  0  0  0  0  0  0  0  0  0
   -0.0799   -3.0638   -2.5608 C   0  0  0  0  0  0  0  0  0  0  0  0
    0.2819   -4.5340   -2.7860 C   0  0  0  0  0  0  0  0  0  0  0  0
    0.2092   -2.5052   -0.0746 C   0  0  0  0  0  0  0  0  0  0  0  0
   -1.3027   -3.1379    0.4304 Cl  0  0  0  0  0  0  0  0  0  0  0  0
    1.1465   -1.9373    0.8299 C   0  0  0  0  0  0  0  0  0  0  0  0
    0.7678   -1.7092    2.4869 Cl  0  0  0  0  0  0  0  0  0  0  0  0
    4.1915   -1.6226    1.8486 C   0  0  0  0  0  0  0  0  0  0  0  0
    5.4521   -1.1884    2.3271 C   0  0  0  0  0  0  0  0  0  0  0  0
    6.0933   -0.0855    1.7405 C   0  0  0  0  0  0  0  0  0  0  0  0
    7.3768    0.3900    2.2290 C   0  0  0  0  0  0  0  0  0  0  0  0
    8.7275    0.6123    1.1579 S   0  0  0  0  0  0  0  0  0  0  0  0
    9.7552    1.1527    2.4403 C   0  0  0  0  0  0  0  0  0  0  0  0
   11.1858    1.4817    2.1938 C   0  0  0  0  0  0  0  0  0  0  0  0
   12.0472    0.2165    2.2058 C   0  0  0  0  0  0  0  0  0  0  0  0
    9.0785    1.1536    3.6238 C   0  0  0  0  0  0  0  0  0  0  0  0
    7.7292    0.7259    3.5069 C   0  0  0  0  0  0  0  0  0  0  0  0
    6.6497    0.7191    4.8397 Cl  0  0  0  0  0  0  0  0  0  0  0  0
    9.7665    1.6308    5.1230 Cl  0  0  0  0  0  0  0  0  0  0  0  0
    5.4476    0.5246    0.6711 C   0  0  0  0  0  0  0  0  0  0  0  0
    6.0217    1.9132   -0.2185 S   0  0  0  0  0  0  0  0  0  0  0  0
    5.9470   -2.0496    3.3504 C   0  0  0  0  0  0  0  0  0  0  0  0
    5.1051   -3.0643    3.6331 C   0  0  0  0  0  0  0  0  0  0  0  0
    3.6568   -3.0494    2.6896 S   0  0  0  0  0  0  0  0  0  0  0  0
   -0.2890   -7.9246    9.8889 H   0  0  0  0  0  0  0  0  0  0  0  0
    0.6871   -5.7025    8.9468 H   0  0  0  0  0  0  0  0  0  0  0  0
    4.1459   -1.9605    5.8245 H   0  0  0  0  0  0  0  0  0  0  0  0
    3.9519   -0.8185    7.1637 H   0  0  0  0  0  0  0  0  0  0  0  0
    3.8236    0.3190    4.9377 H   0  0  0  0  0  0  0  0  0  0  0  0
    2.4500   -0.6982    4.4998 H   0  0  0  0  0  0  0  0  0  0  0  0
    2.2966    0.4705    5.8132 H   0  0  0  0  0  0  0  0  0  0  0  0
   -7.5299   -9.8438    4.6068 H   0  0  0  0  0  0  0  0  0  0  0  0
   -6.1144  -10.0229    3.5560 H   0  0  0  0  0  0  0  0  0  0  0  0
   -8.0736   -7.6775    3.4842 H   0  0  0  0  0  0  0  0  0  0  0  0
   -6.6457   -7.8507    2.4566 H   0  0  0  0  0  0  0  0  0  0  0  0
   -7.9886   -8.9914    2.3071 H   0  0  0  0  0  0  0  0  0  0  0  0
   -4.5864   -4.9445    4.1589 H   0  0  0  0  0  0  0  0  0  0  0  0
   -2.2571   -0.9982    2.7527 H   0  0  0  0  0  0  0  0  0  0  0  0
    1.3045    3.6182    1.4243 H   0  0  0  0  0  0  0  0  0  0  0  0
    1.7771    2.3066    0.3200 H   0  0  0  0  0  0  0  0  0  0  0  0
    2.1118    0.8000    2.2881 H   0  0  0  0  0  0  0  0  0  0  0  0
    1.6998    2.1325    3.3684 H   0  0  0  0  0  0  0  0  0  0  0  0
    3.1469    2.2273    2.3619 H   0  0  0  0  0  0  0  0  0  0  0  0
   -9.5522   -5.9073   -2.0295 H   0  0  0  0  0  0  0  0  0  0  0  0
   -7.9868   -6.6648   -1.6760 H   0  0  0  0  0  0  0  0  0  0  0  0
   -9.9831   -5.6655    0.4133 H   0  0  0  0  0  0  0  0  0  0  0  0
   -8.4166   -6.4000    0.7696 H   0  0  0  0  0  0  0  0  0  0  0  0
   -9.6862   -7.3552   -0.0048 H   0  0  0  0  0  0  0  0  0  0  0  0
   -6.1704   -1.0824   -3.2094 H   0  0  0  0  0  0  0  0  0  0  0  0
   -7.4846    0.9099   -9.2679 H   0  0  0  0  0  0  0  0  0  0  0  0
   -3.2139    2.3756   -4.6015 H   0  0  0  0  0  0  0  0  0  0  0  0
   -1.0652    4.6797  -11.7663 H   0  0  0  0  0  0  0  0  0  0  0  0
   -2.5100    4.0596   -5.4906 H   0  0  0  0  0  0  0  0  0  0  0  0
    1.3206    4.4351   -7.8478 H   0  0  0  0  0  0  0  0  0  0  0  0
    7.1487    3.1246   -9.7418 H   0  0  0  0  0  0  0  0  0  0  0  0
    7.1552    1.9108   -8.4462 H   0  0  0  0  0  0  0  0  0  0  0  0
    5.1470    2.0321  -10.7496 H   0  0  0  0  0  0  0  0  0  0  0  0
    6.4900    0.8926  -10.6161 H   0  0  0  0  0  0  0  0  0  0  0  0
    5.1532    0.8228   -9.4617 H   0  0  0  0  0  0  0  0  0  0  0  0
   -3.0865    3.4469   -0.2234 H   0  0  0  0  0  0  0  0  0  0  0  0
   -2.7370    4.5664    1.1081 H   0  0  0  0  0  0  0  0  0  0  0  0
   -4.8577    5.1677   -0.0505 H   0  0  0  0  0  0  0  0  0  0  0  0
   -3.9851    5.3315   -1.5792 H   0  0  0  0  0  0  0  0  0  0  0  0
   -3.6587    6.4494   -0.2504 H   0  0  0  0  0  0  0  0  0  0  0  0
    2.4966    3.7106   -1.0239 H   0  0  0  0  0  0  0  0  0  0  0  0
    2.7645    0.7889   -1.3326 H   0  0  0  0  0  0  0  0  0  0  0  0
    0.1936   -2.4817   -3.4422 H   0  0  0  0  0  0  0  0  0  0  0  0
   -1.1561   -2.9725   -2.4001 H   0  0  0  0  0  0  0  0  0  0  0  0
    1.3517   -4.6382   -2.9499 H   0  0  0  0  0  0  0  0  0  0  0  0
   -0.2441   -4.9186   -3.6555 H   0  0  0  0  0  0  0  0  0  0  0  0
    0.0030   -5.1274   -1.9191 H   0  0  0  0  0  0  0  0  0  0  0  0
   11.2819    1.9770    1.2262 H   0  0  0  0  0  0  0  0  0  0  0  0
   11.5277    2.1649    2.9733 H   0  0  0  0  0  0  0  0  0  0  0  0
   11.7156   -0.4722    1.4323 H   0  0  0  0  0  0  0  0  0  0  0  0
   13.0875    0.4716    2.0243 H   0  0  0  0  0  0  0  0  0  0  0  0
   11.9735   -0.2807    3.1697 H   0  0  0  0  0  0  0  0  0  0  0  0
    6.8991   -1.9155    3.8289 H   0  0  0  0  0  0  0  0  0  0  0  0
    5.2406   -3.8541    4.3465 H   0  0  0  0  0  0  0  0  0  0  0  0
  1  2  2  0  0  0  0
  2  3  1  0  0  0  0
  3  4  2  0  0  0  0
  4  5  1  0  0  0  0
  5  6  1  0  0  0  0
  6  7  1  0  0  0  0
  7  8  1  0  0  0  0
  8  9  1  0  0  0  0
  7 10  2  0  0  0  0
 10 11  1  0  0  0  0
 10 12  1  0  0  0  0
 12 13  1  0  0  0  0
  4 14  1  0  0  0  0
 14 15  2  0  0  0  0
 15 16  1  0  0  0  0
 16 17  1  0  0  0  0
 17 18  1  0  0  0  0
 18 19  1  0  0  0  0
 19 20  1  0  0  0  0
 20 21  1  0  0  0  0
 19 22  2  0  0  0  0
 22 23  1  0  0  0  0
 23 24  1  0  0  0  0
 22 25  1  0  0  0  0
 16 26  2  0  0  0  0
 26 27  1  0  0  0  0
 15 28  1  0  0  0  0
 28 29  2  0  0  0  0
 29 30  1  0  0  0  0
 29 31  1  0  0  0  0
 31 32  2  0  0  0  0
 32 33  1  0  0  0  0
 33 34  2  0  0  0  0
 34 35  1  0  0  0  0
 35 36  1  0  0  0  0
 36 37  1  0  0  0  0
 37 38  1  0  0  0  0
 38 39  1  0  0  0  0
 37 40  2  0  0  0  0
 40 41  1  0  0  0  0
 40 42  1  0  0  0  0
 42 43  1  0  0  0  0
 34 44  1  0  0  0  0
 44 45  2  0  0  0  0
 45 46  1  0  0  0  0
 46 47  1  0  0  0  0
 47 48  1  0  0  0  0
 48 49  1  0  0  0  0
 49 50  1  0  0  0  0
 50 51  1  0  0  0  0
 49 52  2  0  0  0  0
 52 53  1  0  0  0  0
 53 54  1  0  0  0  0
 52 55  1  0  0  0  0
 46 56  2  0  0  0  0
 56 57  1  0  0  0  0
 45 58  1  0  0  0  0
 58 59  2  0  0  0  0
 59 60  1  0  0  0  0
 59 61  1  0  0  0  0
 61 62  1  0  0  0  0
 62 63  1  0  0  0  0
 63 64  1  0  0  0  0
 64 65  2  0  0  0  0
 64 66  1  0  0  0  0
 63 67  2  0  0  0  0
 67 68  1  0  0  0  0
 67 69  1  0  0  0  0
 69 70  1  0  0  0  0
 70 71  1  0  0  0  0
 71 72  1  0  0  0  0
 72 73  2  0  0  0  0
 72 74  1  0  0  0  0
 71 75  2  0  0  0  0
 75 76  1  0  0  0  0
 75 77  1  0  0  0  0
 77 78  2  0  0  0  0
 78 79  1  0  0  0  0
 79 80  2  0  0  0  0
 80 81  1  0  0  0  0
 81 82  1  0  0  0  0
 82 83  1  0  0  0  0
 83 84  1  0  0  0  0
 84 85  1  0  0  0  0
 83 86  2  0  0  0  0
 86 87  1  0  0  0  0
 86 88  1  0  0  0  0
 88 89  1  0  0  0  0
 80 90  1  0  0  0  0
 90 91  2  0  0  0  0
 91 92  1  0  0  0  0
 92 93  1  0  0  0  0
 93 94  1  0  0  0  0
 94 95  1  0  0  0  0
 95 96  1  0  0  0  0
 96 97  1  0  0  0  0
 95 98  2  0  0  0  0
 98 99  1  0  0  0  0
 99100  1  0  0  0  0
 98101  1  0  0  0  0
 92102  2  0  0  0  0
102103  1  0  0  0  0
 91104  1  0  0  0  0
104105  2  0  0  0  0
105106  1  0  0  0  0
105107  1  0  0  0  0
107108  2  0  0  0  0
108109  1  0  0  0  0
109110  2  0  0  0  0
110111  1  0  0  0  0
111112  1  0  0  0  0
112113  1  0  0  0  0
113114  1  0  0  0  0
114115  1  0  0  0  0
113116  2  0  0  0  0
116117  1  0  0  0  0
116118  1  0  0  0  0
118119  1  0  0  0  0
110120  1  0  0  0  0
120121  2  0  0  0  0
121122  1  0  0  0  0
122123  1  0  0  0  0
123124  1  0  0  0  0
124125  1  0  0  0  0
125126  1  0  0  0  0
126127  1  0  0  0  0
125128  2  0  0  0  0
128129  1  0  0  0  0
129130  1  0  0  0  0
128131  1  0  0  0  0
122132  2  0  0  0  0
132133  1  0  0  0  0
121134  1  0  0  0  0
134135  2  0  0  0  0
135136  1  0  0  0  0
 27  1  1  0  0  0  0
 57 31  1  0  0  0  0
 68 61  2  0  0  0  0
 76 69  2  0  0  0  0
103 77  1  0  0  0  0
133107  1  0  0  0  0
 26  3  1  0  0  0  0
 56 33  1  0  0  0  0
102 79  1  0  0  0  0
132109  1  0  0  0  0
 12  5  2  0  0  0  0
 30 14  1  0  0  0  0
 42 35  2  0  0  0  0
 60 44  1  0  0  0  0
 88 81  2  0  0  0  0
106 90  1  0  0  0  0
118111  2  0  0  0  0
136120  1  0  0  0  0
 23 17  2  0  0  0  0
 53 47  2  0  0  0  0
 99 93  2  0  0  0  0
129123  2  0  0  0  0
  1137  1  0  0  0  0
  2138  1  0  0  0  0
  8139  1  0  0  0  0
  8140  1  0  0  0  0
  9141  1  0  0  0  0
  9142  1  0  0  0  0
  9143  1  0  0  0  0
 20144  1  0  0  0  0
 20145  1  0  0  0  0
 21146  1  0  0  0  0
 21147  1  0  0  0  0
 21148  1  0  0  0  0
 28149  1  0  0  0  0
 32150  1  0  0  0  0
 38151  1  0  0  0  0
 38152  1  0  0  0  0
 39153  1  0  0  0  0
 39154  1  0  0  0  0
 39155  1  0  0  0  0
 50156  1  0  0  0  0
 50157  1  0  0  0  0
 51158  1  0  0  0  0
 51159  1  0  0  0  0
 51160  1  0  0  0  0
 58161  1  0  0  0  0
 66162  1  0  0  0  0
 68163  1  0  0  0  0
 74164  1  0  0  0  0
 76165  1  0  0  0  0
 78166  1  0  0  0  0
 84167  1  0  0  0  0
 84168  1  0  0  0  0
 85169  1  0  0  0  0
 85170  1  0  0  0  0
 85171  1  0  0  0  0
 96172  1  0  0  0  0
 96173  1  0  0  0  0
 97174  1  0  0  0  0
 97175  1  0  0  0  0
 97176  1  0  0  0  0
104177  1  0  0  0  0
108178  1  0  0  0  0
114179  1  0  0  0  0
114180  1  0  0  0  0
115181  1  0  0  0  0
115182  1  0  0  0  0
115183  1  0  0  0  0
126184  1  0  0  0  0
126185  1  0  0  0  0
127186  1  0  0  0  0
127187  1  0  0  0  0
127188  1  0  0  0  0
134189  1  0  0  0  0
135190  1  0  0  0  0
M  END
