228

C          4.11100       -0.34240        9.50040
C          3.48200        0.56150        8.72420
C          2.56280       -0.03320        7.80770
C          1.71360        0.60810        6.89260
C          1.75890        2.06860        6.73510
C          2.97680        2.71070        6.51520
C          3.03870        4.08590        6.43680
C          1.89700        4.86750        6.58510
S          2.09490        6.63050        6.61920
C          0.85050        7.20000        5.40510
C          1.16770        6.68760        4.01510
C          0.68660        4.21300        6.78580
F         -0.45000        4.92010        6.96210
C          0.60420        2.83620        6.84410
C          0.84970       -0.20270        6.17020
C          0.83460       -1.61550        6.29660
C          1.68910       -2.25820        7.20710
C          1.67620       -3.71770        7.36380
C          2.85470       -4.45880        7.30510
C          2.82610       -5.83360        7.40610
C          1.62910       -6.52220        7.58700
S          1.69420       -8.28590        7.71660
C          0.31520       -8.82770        6.63810
C          0.50410       -8.36850        5.20720
C          0.46620       -5.76550        7.70090
C          0.47670       -4.39150        7.57470
F         -0.72130       -6.35700        7.94650
C          2.53220       -1.44190        7.94600
S          3.64090       -1.97960        9.18400
C         -0.08370       -2.21540        5.39940
C         -0.77250       -1.31500        4.64090
S         -0.30310        0.33890        4.97830
C         -1.76860       -1.61110        3.65850
C         -2.01800       -2.82340        3.07860
C         -3.04660       -2.78320        2.10740
C         -3.47800       -3.82500        1.26510
C         -2.98880       -5.19750        1.43620
C         -2.51430       -5.94140        0.36000
C         -2.08750       -7.24450        0.52520
C         -2.13210       -7.85660        1.77240
S         -1.61580       -9.50860        2.10740
C         -1.70430      -10.33250        0.48120
C         -3.12570      -10.43220       -0.03670
C         -2.59620       -7.09440        2.84570
F         -2.64360       -7.65060        4.07310
C         -3.01650       -5.79240        2.69700
C         -4.38800       -3.48580        0.27690
C         -4.94280       -2.18520        0.15290
C         -4.55390       -1.15770        1.03030
C         -5.12330        0.18900        0.92090
C         -5.14810        0.85590       -0.30100
C         -5.69110        2.12080       -0.41540
C         -6.22640        2.76540        0.69340
S         -6.91010        4.38830        0.68980
C         -7.25940        4.71540       -1.07140
C         -8.36410        3.83110       -1.61760
C         -6.18280        2.09110        1.91500
C         -5.64780        0.82920        2.04120
F         -6.68930        2.69100        3.00840
C         -3.59070       -1.47960        1.97280
S         -2.82260       -0.35590        3.05790
C         -5.85350       -2.10220       -0.92250
C         -5.96070       -3.26280       -1.63640
S         -5.00600       -4.56160       -0.95450
C         -6.60450       -3.40870       -2.89050
S         -7.35980       -2.03510       -3.67610
C         -7.54840       -2.83760       -5.23010
C         -7.15400       -4.14110       -5.05080
C         -6.61770       -4.44850       -3.78400
O         -6.18960       -5.74090       -3.81450
C         -6.45910       -6.20210       -5.05420
S         -6.13220       -7.69790       -5.55690
O         -7.04210       -5.25340       -5.82680
C         -8.07020       -2.23090       -6.40940
C         -8.06270       -0.92400       -6.75340
C         -7.38690        0.15200       -6.09800
S         -7.97170        1.80070       -6.27160
C         -6.70470        2.52530       -5.29530
C         -5.88870        1.50200       -4.88210
C         -6.23990        0.21740       -5.34680
O         -5.29500       -0.65790       -4.88760
C         -4.44600        0.05860       -4.12640
S         -3.18370       -0.55680       -3.32580
O         -4.78080        1.36370       -4.09640
C         -6.73000        3.92350       -4.99670
C         -5.74910        4.63270       -4.40760
C         -4.41590        4.14950       -4.13810
C         -3.54330        3.57130       -5.00510
C         -2.30920        3.19080       -4.41110
C         -1.19480        2.59820       -5.02510
C         -1.19750        2.23030       -6.44600
C         -2.20960        1.43460       -6.97960
C         -2.17970        1.04970       -8.30190
C         -1.15290        1.45720       -9.15280
S         -1.24820        0.92870      -10.83580
C          0.49030        0.62340      -11.32320
C          1.16690       -0.39010      -10.42280
C         -0.16810        2.28120       -8.61500
F          0.83030        2.76250       -9.38540
C         -0.17030        2.64750       -7.28440
C         -0.09720        2.34680       -4.21560
C         -0.09040        2.60720       -2.82360
C         -1.20370        3.19740       -2.20920
C         -1.22400        3.43300       -0.75890
C         -0.22630        4.17020       -0.12640
C         -0.23470        4.32560        1.24640
C         -1.23370        3.75180        2.02020
S         -1.19600        3.88380        3.79830
C         -2.37450        5.26470        4.06430
C         -3.79430        4.95770        3.63780
C         -2.22550        3.02400        1.37650
C         -2.23720        2.86680        0.00550
F         -3.19960        2.43750        2.09050
C         -2.27970        3.49140       -3.02830
S         -3.74210        4.28780       -2.52190
C          1.10680        2.16840       -2.20680
C          2.00170        1.62710       -3.07880
S          1.40040        1.60990       -4.72530
C          3.30080        1.12630       -2.76770
C          4.30180        0.78270       -3.62390
C          5.48450        0.35050       -2.96790
C          6.71070       -0.01500       -3.54430
C          6.87850       -0.07290       -5.00080
C          5.97880       -0.78140       -5.79680
C          6.14970       -0.84430       -7.16220
C          7.20750       -0.19140       -7.79470
S          7.27450       -0.30640       -9.55680
C          9.06010       -0.35080       -9.95690
C          9.77000       -1.50190       -9.27370
C          8.08100        0.53350       -6.98960
F          9.10420        1.23370       -7.52710
C          7.93950        0.58020       -5.61740
C          7.74300       -0.32200       -2.66850
C          7.59690       -0.30660       -1.26000
C          6.36950        0.05000       -0.68430
C          6.16920        0.07980        0.77130
C          5.11660       -0.62180        1.35340
C          4.92450       -0.60940        2.72030
C          5.78080        0.10250        3.55190
S          5.61450        0.14160        5.31110
C          5.07600       -1.56260        5.68770
C          6.06220       -2.60140        5.19260
C          6.81090        0.82690        2.95520
C          7.01670        0.81920        1.59160
F          7.64520        1.55040        3.72550
C          5.34340        0.37360       -1.55880
S          3.75690        0.92080       -1.08600
C          8.79240       -0.72540       -0.60320
C          9.78470       -1.02960       -1.46340
S          9.34700       -0.83470       -3.12600
H          4.84130       -0.16180       10.26460
H          3.63970        1.62160        8.79780
H          3.87550        2.12630        6.38770
H          3.98330        4.58040        6.27210
H         -0.13610        6.88780        5.73910
H          0.91760        8.28670        5.45470
H          1.08890        5.60200        3.98910
H          2.17750        6.97260        3.72630
H          0.46710        7.10990        3.29620
H         -0.35790        2.38060        7.01710
H          3.79540       -3.95380        7.15050
H          3.73840       -6.40560        7.34030
H         -0.62480       -8.47610        7.05630
H          0.35130       -9.91420        6.70970
H          1.45810       -8.71490        4.81510
H          0.47680       -7.28180        5.14240
H         -0.29580       -8.77080        4.58980
H         -0.45220       -3.85250        7.68090
H         -0.22730       -3.27740        5.32460
H         -1.45030       -3.70890        3.29750
H         -2.45340       -5.48940       -0.61770
H         -1.71150       -7.78090       -0.33080
H         -1.04350       -9.81270       -0.21150
H         -1.29070      -11.32150        0.67840
H         -3.13620      -10.96730       -0.98410
H         -3.55680       -9.44520       -0.19250
H         -3.74800      -10.97090        0.67430
H         -3.39370       -5.25980        3.55610
H         -4.69410        0.39340       -1.16520
H         -5.67030        2.61200       -1.37490
H         -7.56330        5.76210       -1.07790
H         -6.33230        4.61990       -1.63560
H         -8.08120        2.78130       -1.57630
H         -9.27300        3.96370       -1.03570
H         -8.57030        4.09310       -2.65360
H         -5.64920        0.35210        3.00800
H         -6.40030       -1.21410       -1.18420
H         -8.51930       -2.93170       -7.10180
H         -8.61990       -0.63060       -7.63230
H         -7.65850        4.41780       -5.24660
H         -5.96040        5.64790       -4.09770
H         -3.75990        3.44770       -6.05180
H         -3.00060        1.08070       -6.33680
H         -2.95330        0.41470       -8.70560
H          1.02430        1.57050      -11.34650
H          0.39550        0.24410      -12.34080
H          2.16670       -0.59870      -10.79770
H          1.25570       -0.01160       -9.40610
H          0.60030       -1.31870      -10.39810
H          0.62110        3.28460       -6.92170
H          0.55450        4.62830       -0.71490
H          0.54630        4.88750        1.73410
H         -2.31710        5.42950        5.13960
H         -1.97600        6.13540        3.54220
H         -4.45490        5.75450        3.97390
H         -3.87560        4.88750        2.55490
H         -4.13400        4.02110        4.07270
H         -3.01320        2.27150       -0.44820
H          1.29680        2.24530       -1.15110
H          4.20740        0.86750       -4.69180
H          5.16020       -1.31160       -5.33450
H          5.46010       -1.40590       -7.77310
H          9.06560       -0.47300      -11.04030
H          9.50420        0.61000       -9.70700
H          9.76320       -1.37770       -8.19250
H          9.28790       -2.44670       -9.51630
H         10.80500       -1.54090       -9.60690
H          8.64580        1.16150       -5.04550
H          4.44880       -1.19700        0.73050
H          4.09770       -1.15790        3.14370
H          5.02350       -1.56860        6.77540
H          4.07370       -1.71590        5.28760
H          6.13710       -2.58330        4.10670
H          7.04840       -2.41300        5.61110
H          5.73800       -3.59440        5.49820
H          7.82660        1.39910        1.17710
H          8.88310       -0.80220        0.46500
H         10.77690       -1.36540       -1.23310
