260

C          6.17120       -4.96480        7.92480
C          6.25530       -3.65640        7.61470
C          5.18830       -3.20890        6.77610
C          4.96570       -1.91570        6.27270
C          5.96530       -0.86090        6.46340
C          7.31670       -1.13270        6.26020
C          8.28410       -0.16390        6.43840
C          7.93430        1.12750        6.81330
S          9.04920        2.46950        7.04210
C         10.68450        1.78230        6.60620
C         11.30870        0.99990        7.74670
C          6.57700        1.38930        7.01120
F          6.20160        2.62960        7.38610
C          5.60470        0.42960        6.84740
C          3.76240       -1.71100        5.60560
C          2.83840       -2.75460        5.35720
C          3.12580       -4.07210        5.74560
C          2.26760       -5.18460        5.33440
C          1.83830       -5.27990        4.00970
C          1.07490       -6.34630        3.59330
C          0.69650       -7.36220        4.47330
S         -0.29960       -8.65720        3.80170
C          0.14680      -10.15360        4.75500
C          1.62220      -10.48580        4.66080
C          1.09900       -7.23220        5.79930
C          1.88120       -6.17860        6.22610
F          0.72310       -8.13350        6.73380
C          4.27610       -4.25390        6.50120
S          4.79400       -5.75120        7.23380
C          1.63520       -2.27210        4.77250
C          1.64740       -0.93910        4.52070
S          3.17090       -0.19460        4.96770
C          0.53890       -0.11930        4.10080
S         -0.93110       -0.15190        5.01490
C         -1.64270        1.10680        4.04220
C         -0.77840        1.48600        3.02750
C          0.47550        0.80910        3.08670
O          1.53200        0.98480        2.23740
C          2.16760        2.26300        2.30060
C          3.52090        2.13580        1.62550
O         -1.10820        2.46570        2.14010
C         -0.97320        2.14000        0.76160
C         -2.03280        1.14460        0.30430
C         -2.90630        1.62290        4.44980
C         -3.70510        2.49890        3.79480
C         -4.86830        3.02060        4.43220
C         -5.88800        3.74680        3.91260
C         -6.23950        4.01730        2.55450
S         -7.32170        5.34480        2.26190
C         -7.45110        4.98500        0.56560
C         -6.66490        3.87870        0.24820
C         -6.00310        3.32270        1.37540
O         -5.28890        2.14490        1.32920
C         -5.98560        1.03440        1.88980
C         -5.08310       -0.18520        1.84580
O         -6.61900        3.44960       -1.03740
C         -5.79040        2.35480       -1.39770
C         -5.84880        2.22420       -2.91120
C         -8.35470        5.74920       -0.22860
C         -8.52350        5.61580       -1.56250
C         -9.51210        6.28810       -2.34880
C         -9.48560        6.32820       -3.70060
C         -8.31090        5.90310       -4.41380
C         -7.03560        6.17620       -4.02500
C         -6.04830        5.46030       -4.74020
C         -4.67140        5.44180       -4.48480
C         -4.05390        6.14100       -3.35030
C         -4.57470        5.98430       -2.06830
C         -3.92660        6.50060       -0.96390
C         -2.72750        7.19150       -1.09970
S         -1.77960        7.85790        0.22460
C         -2.52370        7.13120        1.72580
C         -2.25020        5.64590        1.85830
C         -2.24030        7.37650       -2.39500
F         -1.10190        8.07970       -2.57150
C         -2.87170        6.86190       -3.50470
C         -3.92720        4.53710       -5.22290
C         -4.48500        3.63370       -6.15890
C         -5.85610        3.71370       -6.47050
C         -6.43710        2.83370       -7.48910
C         -5.82060        2.70350       -8.73410
C         -6.37250        1.90570       -9.71220
C         -7.54670        1.18930       -9.48630
S         -8.13980        0.16730      -10.80220
C         -9.95780        0.37860      -10.74360
C        -10.36540        1.83170      -10.88050
C         -8.12770        1.29630       -8.22650
C         -7.60170        2.11360       -7.24700
F         -9.23520        0.58840       -7.91270
C         -6.60970        4.62190       -5.73660
S         -8.34850        4.81750       -5.79390
C         -3.57010        2.59300       -6.48940
C         -2.37240        2.70010       -5.84870
S         -2.26190        4.17570       -4.89260
C         -1.34550        1.74450       -5.58200
C         -0.28790        2.00760       -4.76220
C          0.33730        0.85550       -4.24130
C          1.29830        0.81790       -3.22200
C          1.74480        2.03810       -2.53840
C          3.09140        2.29810       -2.29400
C          3.47320        3.43470       -1.61250
C          2.53590        4.34620       -1.12710
S          3.13820        5.71920       -0.19300
C          2.05860        7.11500       -0.68400
C          2.10080        7.36580       -2.17630
C          1.19420        4.05970       -1.35860
F          0.21580        4.85930       -0.87840
C          0.79870        2.94020       -2.05990
C          1.68770       -0.43960       -2.79480
C          1.16930       -1.64130       -3.33950
C          0.21730       -1.59650       -4.37750
C         -0.30340       -2.83570       -4.96600
C          0.57410       -3.83080       -5.39890
C          0.09650       -4.99260       -5.96210
C         -1.27260       -5.22450       -6.10600
S         -1.74220       -6.77940       -6.79270
C         -3.37080       -6.47000       -7.58350
C         -3.62210       -7.55120       -8.61580
C         -2.13560       -4.23170       -5.65190
C         -1.66900       -3.05210       -5.10690
F         -3.47690       -4.39290       -5.71100
C         -0.20920       -0.33780       -4.77640
S         -1.50730        0.02490       -5.89910
C          1.62040       -2.77680       -2.61510
C          2.44010       -2.46340       -1.57040
S          2.73440       -0.74270       -1.44250
C          3.04110       -3.31190       -0.59080
C          2.84360       -4.63720       -0.33920
C          3.60430       -5.12400        0.75890
C          3.66490       -6.43380        1.26920
C          3.03350       -7.55070        0.55970
C          3.16710       -7.66020       -0.82380
C          2.60340       -8.70910       -1.52340
C          1.89040       -9.70280       -0.86270
S          1.09750      -11.08250       -1.61380
C          1.62950      -11.02240       -3.35900
C          3.06560      -11.47670       -3.54130
C          1.77830       -9.59080        0.52490
F          1.10660      -10.54600        1.19770
C          2.33040       -8.54850        1.23280
C          4.42060       -6.60940        2.42370
C          5.21560       -5.58540        2.99650
C          5.22440       -4.30220        2.43610
C          6.14550       -3.23380        2.84130
C          7.51770       -3.46830        2.93230
C          8.39970       -2.42170        3.09600
C          7.95520       -1.10380        3.20020
S          9.18710        0.15350        3.34430
C          8.48630        1.63110        2.50970
C          8.00260        2.68930        3.48030
C          6.58050       -0.89650        3.20230
C          5.68930       -1.93000        3.00170
F          6.06580        0.33730        3.38340
C          4.36950       -4.09560        1.36180
S          4.17460       -2.58400        0.52490
C          5.94110       -6.04970        4.13190
C          5.71150       -7.34890        4.40630
S          4.60730       -8.10060        3.30970
H          6.83180       -5.54020        8.54340
H          7.02570       -3.00830        7.99020
H          7.61840       -2.11430        5.92670
H          9.31360       -0.42630        6.26280
H         11.28240        2.66470        6.37690
H         10.57530        1.18960        5.69890
H         11.43040        1.63950        8.61790
H         12.28730        0.62880        7.44790
H         10.68760        0.15340        8.03050
H          4.57740        0.69290        7.03990
H          2.13470       -4.52570        3.29690
H          0.75500       -6.41640        2.56490
H         -0.45570      -10.92860        4.28120
H         -0.18080      -10.02540        5.78430
H          1.82510      -11.38880        5.23270
H          1.90810      -10.66000        3.62690
H          2.23520       -9.68160        5.06400
H          2.14720       -6.12920        7.27010
H          0.77780       -2.89290        4.58330
H          1.55080        3.01810        1.79560
H          2.28920        2.56050        3.34960
H          4.16520        1.48340        2.20640
H          3.39780        1.71390        0.63090
H          3.98070        3.11650        1.54490
H          0.02490        1.74350        0.54500
H         -1.10330        3.09670        0.25330
H         -3.02660        1.51710        0.54120
H         -1.95180        0.99120       -0.76940
H         -1.89060        0.18750        0.80310
H         -3.23560        1.25610        5.41600
H         -3.45090        2.83580        2.80320
H         -4.91310        2.84660        5.50170
H         -6.58270        4.18510        4.61990
H         -6.27080        1.25790        2.92480
H         -6.90550        0.85410        1.31220
H         -5.60860       -1.03790        2.26620
H         -4.79960       -0.41140        0.82110
H         -4.18450        0.00040        2.42740
H         -4.76190        2.53640       -1.06610
H         -6.15610        1.43390       -0.93010
H         -6.87750        2.08620       -3.23410
H         -5.25940        1.36920       -3.22990
H         -5.45440        3.11970       -3.38190
H         -8.93600        6.48160        0.31810
H         -7.89470        4.91250       -2.08620
H        -10.35510        6.71800       -1.82410
H        -10.33770        6.67500       -4.26670
H         -6.80730        6.87900       -3.24510
H         -5.48090        5.41840       -1.92390
H         -4.36720        6.35010        0.00840
H         -3.58860        7.36250        1.73160
H         -2.04590        7.68520        2.53410
H         -1.18050        5.45340        1.85810
H         -2.69520        5.08790        1.03770
H         -2.66570        5.27570        2.79350
H         -2.44240        7.03070       -4.48000
H         -4.91860        3.25920       -8.94140
H         -5.90290        1.82290      -10.68010
H        -10.30300       -0.20900      -11.59430
H        -10.33750       -0.06740       -9.82710
H         -9.94700        2.26220      -11.78810
H        -10.01880        2.41490      -10.02930
H        -11.45020        1.90400      -10.92660
H         -8.09380        2.15030       -6.28820
H         -3.82940        1.75120       -7.10710
H          0.00020        3.00770       -4.49430
H          3.84330        1.61570       -2.65940
H          4.51770        3.63700       -1.43450
H          1.04610        6.93250       -0.33220
H          2.47680        7.95610       -0.13130
H          3.12070        7.54950       -2.50860
H          1.70450        6.51330       -2.72500
H          1.48790        8.23230       -2.41090
H         -0.25710        2.76020       -2.18950
H          1.63890       -3.67330       -5.31720
H          0.77920       -5.75310       -6.30820
H         -4.13670       -6.47920       -6.80970
H         -3.32340       -5.48560       -8.04660
H         -4.58350       -7.38150       -9.09550
H         -3.63510       -8.53220       -8.14600
H         -2.84460       -7.54330       -9.37650
H         -2.38900       -2.32600       -4.76400
H          1.31640       -3.78230       -2.84220
H          2.14920       -5.24240       -0.89270
H          3.74740       -6.92600       -1.36210
H          2.72780       -8.74300       -2.59340
H          1.45400      -10.01790       -3.74170
H          0.94290      -11.70620       -3.85820
H          3.33070      -11.45200       -4.59660
H          3.75370      -10.83610       -2.99390
H          3.18470      -12.49420       -3.17660
H          2.18870       -8.50850        2.29930
H          7.89680       -4.47190        2.81320
H          9.46300       -2.60440        3.12080
H          9.31210        2.00850        1.90530
H          7.69390        1.28600        1.84970
H          7.62920        3.54530        2.92230
H          7.19810        2.31070        4.10420
H          8.81450        3.02120        4.12280
H          4.63660       -1.69960        2.98330
H          6.58770       -5.41760        4.71360
H          6.11530       -7.93610        5.20760
