
  xtb     02282218093D
 energy: -252.261851267554 gnorm: 0.000590821678 xtb: 6.4.1 (unknown)
124135  0     0  0            999 V2000
    7.0918   -3.8621    5.5797 C   0  0  0  0  0  0  0  0  0  0  0  0
    5.6431   -4.1524    6.4381 S   0  0  0  0  0  0  0  0  0  0  0  0
    4.6502   -3.4006    5.2074 C   0  0  0  0  0  0  0  0  0  0  0  0
    5.4693   -2.9493    4.1857 C   0  0  0  0  0  0  0  0  0  0  0  0
    5.1693   -2.1452    2.6798 S   0  0  0  0  0  0  0  0  0  0  0  0
    6.8835   -2.1681    2.3085 C   0  0  0  0  0  0  0  0  0  0  0  0
    7.3301   -1.5941    1.0332 C   0  0  0  0  0  0  0  0  0  0  0  0
    8.4710   -1.5347    0.6547 O   0  0  0  0  0  0  0  0  0  0  0  0
    6.2727   -1.1504    0.3441 O   0  0  0  0  0  0  0  0  0  0  0  0
    6.5324   -0.5710   -0.9351 C   0  0  0  0  0  0  0  0  0  0  0  0
    5.2242   -0.4876   -1.6985 C   0  0  0  0  0  0  0  0  0  0  0  0
    7.6293   -2.7501    3.2910 C   0  0  0  0  0  0  0  0  0  0  0  0
    6.8528   -3.2163    4.3915 C   0  0  0  0  0  0  0  0  0  0  0  0
    8.9503   -2.8896    3.2511 F   0  0  0  0  0  0  0  0  0  0  0  0
    3.2432   -3.2859    5.2728 C   0  0  0  0  0  0  0  0  0  0  0  0
    2.4296   -2.3619    4.0418 S   0  0  0  0  0  0  0  0  0  0  0  0
    0.8360   -2.6748    4.7016 C   0  0  0  0  0  0  0  0  0  0  0  0
    0.9594   -3.4715    5.8274 C   0  0  0  0  0  0  0  0  0  0  0  0
   -0.1969   -4.2564    6.8532 S   0  0  0  0  0  0  0  0  0  0  0  0
    1.0889   -5.0060    7.7579 C   0  0  0  0  0  0  0  0  0  0  0  0
    0.7031   -5.8694    8.8805 C   0  0  0  0  0  0  0  0  0  0  0  0
   -0.4456   -6.1381    9.1358 O   0  0  0  0  0  0  0  0  0  0  0  0
    1.7619   -6.2924    9.5720 O   0  0  0  0  0  0  0  0  0  0  0  0
    1.5046   -7.1531   10.6814 C   0  0  0  0  0  0  0  0  0  0  0  0
    1.3562   -8.6008   10.2366 C   0  0  0  0  0  0  0  0  0  0  0  0
    2.3292   -4.6805    7.2844 C   0  0  0  0  0  0  0  0  0  0  0  0
    2.3032   -3.8153    6.1601 C   0  0  0  0  0  0  0  0  0  0  0  0
    3.4581   -5.1506    7.8199 F   0  0  0  0  0  0  0  0  0  0  0  0
   -0.2788   -2.1749    3.9922 C   0  0  0  0  0  0  0  0  0  0  0  0
   -0.0831   -1.8700    2.2832 S   0  0  0  0  0  0  0  0  0  0  0  0
   -1.7455   -1.3736    2.0666 C   0  0  0  0  0  0  0  0  0  0  0  0
   -2.4005   -1.4522    3.2824 C   0  0  0  0  0  0  0  0  0  0  0  0
   -4.0121   -1.0543    3.7511 S   0  0  0  0  0  0  0  0  0  0  0  0
   -3.6036   -1.3578    5.4251 C   0  0  0  0  0  0  0  0  0  0  0  0
   -4.6571   -1.1725    6.4266 C   0  0  0  0  0  0  0  0  0  0  0  0
   -5.7938   -0.8745    6.1378 O   0  0  0  0  0  0  0  0  0  0  0  0
   -4.2106   -1.3656    7.6653 O   0  0  0  0  0  0  0  0  0  0  0  0
   -5.1624   -1.2630    8.7240 C   0  0  0  0  0  0  0  0  0  0  0  0
   -5.9175   -2.5705    8.9134 C   0  0  0  0  0  0  0  0  0  0  0  0
   -2.3068   -1.7589    5.5910 C   0  0  0  0  0  0  0  0  0  0  0  0
   -1.5854   -1.8657    4.3746 C   0  0  0  0  0  0  0  0  0  0  0  0
   -1.7498   -1.9611    6.7846 F   0  0  0  0  0  0  0  0  0  0  0  0
   -2.1896   -0.9303    0.8077 C   0  0  0  0  0  0  0  0  0  0  0  0
   -1.0249   -0.7020   -0.4618 S   0  0  0  0  0  0  0  0  0  0  0  0
   -2.2076   -0.1467   -1.6023 C   0  0  0  0  0  0  0  0  0  0  0  0
   -3.4771   -0.1589   -1.0035 C   0  0  0  0  0  0  0  0  0  0  0  0
   -3.4747   -0.5988    0.3543 C   0  0  0  0  0  0  0  0  0  0  0  0
   -4.6224   -0.6777    1.0686 N   0  0  0  0  0  0  0  0  0  0  0  0
   -5.7230   -0.3486    0.4364 C   0  0  0  0  0  0  0  0  0  0  0  0
   -6.9252   -0.4209    0.9924 O   0  0  0  0  0  0  0  0  0  0  0  0
   -7.0463   -0.7936    2.3658 C   0  0  0  0  0  0  0  0  0  0  0  0
   -6.9053    0.4162    3.2761 C   0  0  0  0  0  0  0  0  0  0  0  0
   -5.7214    0.1162   -0.9345 C   0  0  0  0  0  0  0  0  0  0  0  0
   -7.0153    0.5269   -1.5637 C   0  0  0  0  0  0  0  0  0  0  0  0
   -6.8733    0.7629   -2.9835 N   0  0  0  0  0  0  0  0  0  0  0  0
   -4.6194    0.2161   -1.6148 N   0  0  0  0  0  0  0  0  0  0  0  0
   -1.8026    0.2469   -2.8893 C   0  0  0  0  0  0  0  0  0  0  0  0
   -2.6691    0.6662   -3.8564 C   0  0  0  0  0  0  0  0  0  0  0  0
   -2.3408    1.1437   -5.1386 C   0  0  0  0  0  0  0  0  0  0  0  0
   -3.6651    1.7490   -6.1034 S   0  0  0  0  0  0  0  0  0  0  0  0
   -2.6353    2.2396   -7.4220 C   0  0  0  0  0  0  0  0  0  0  0  0
   -1.3279    1.9108   -7.1229 C   0  0  0  0  0  0  0  0  0  0  0  0
    0.1302    2.0048   -8.0575 S   0  0  0  0  0  0  0  0  0  0  0  0
    1.0127    1.2383   -6.7669 C   0  0  0  0  0  0  0  0  0  0  0  0
    2.4469    1.0152   -6.9695 C   0  0  0  0  0  0  0  0  0  0  0  0
    3.0263    1.3280   -7.9814 O   0  0  0  0  0  0  0  0  0  0  0  0
    3.0150    0.4217   -5.9157 O   0  0  0  0  0  0  0  0  0  0  0  0
    4.4153    0.1633   -5.9996 C   0  0  0  0  0  0  0  0  0  0  0  0
    5.2314    1.3929   -5.6269 C   0  0  0  0  0  0  0  0  0  0  0  0
    0.2211    0.9305   -5.6928 C   0  0  0  0  0  0  0  0  0  0  0  0
   -1.1412    1.2883   -5.8535 C   0  0  0  0  0  0  0  0  0  0  0  0
    0.7110    0.3271   -4.6073 F   0  0  0  0  0  0  0  0  0  0  0  0
   -3.1695    2.8366   -8.5965 C   0  0  0  0  0  0  0  0  0  0  0  0
   -4.6868    2.2961   -9.2614 S   0  0  0  0  0  0  0  0  0  0  0  0
   -4.5823    3.3610  -10.6084 C   0  0  0  0  0  0  0  0  0  0  0  0
   -3.4457    4.1060  -10.5474 C   0  0  0  0  0  0  0  0  0  0  0  0
   -2.7845    5.3727  -11.5425 S   0  0  0  0  0  0  0  0  0  0  0  0
   -1.4767    5.5956  -10.4002 C   0  0  0  0  0  0  0  0  0  0  0  0
   -0.5051    6.6534  -10.6987 C   0  0  0  0  0  0  0  0  0  0  0  0
   -0.5722    7.3463  -11.6852 O   0  0  0  0  0  0  0  0  0  0  0  0
    0.4300    6.7516   -9.7534 O   0  0  0  0  0  0  0  0  0  0  0  0
    1.4529    7.7255   -9.9590 C   0  0  0  0  0  0  0  0  0  0  0  0
    2.5499    7.1911  -10.8681 C   0  0  0  0  0  0  0  0  0  0  0  0
   -1.5369    4.7318   -9.3431 C   0  0  0  0  0  0  0  0  0  0  0  0
   -2.6339    3.8331   -9.4007 C   0  0  0  0  0  0  0  0  0  0  0  0
   -0.6872    4.7658   -8.3162 F   0  0  0  0  0  0  0  0  0  0  0  0
    8.0320   -4.1808    5.9823 H   0  0  0  0  0  0  0  0  0  0  0  0
    7.2685   -1.1910   -1.4590 H   0  0  0  0  0  0  0  0  0  0  0  0
    6.9687    0.4232   -0.7849 H   0  0  0  0  0  0  0  0  0  0  0  0
    5.3980   -0.0293   -2.6674 H   0  0  0  0  0  0  0  0  0  0  0  0
    4.8078   -1.4807   -1.8432 H   0  0  0  0  0  0  0  0  0  0  0  0
    4.5051    0.1094   -1.1446 H   0  0  0  0  0  0  0  0  0  0  0  0
    0.5937   -6.8159   11.1874 H   0  0  0  0  0  0  0  0  0  0  0  0
    2.3675   -7.0280   11.3383 H   0  0  0  0  0  0  0  0  0  0  0  0
    1.2319   -9.2376   11.1076 H   0  0  0  0  0  0  0  0  0  0  0  0
    2.2400   -8.9159    9.6873 H   0  0  0  0  0  0  0  0  0  0  0  0
    0.4837   -8.7057    9.5962 H   0  0  0  0  0  0  0  0  0  0  0  0
   -4.5715   -1.0176    9.6083 H   0  0  0  0  0  0  0  0  0  0  0  0
   -5.8589   -0.4486    8.4977 H   0  0  0  0  0  0  0  0  0  0  0  0
   -6.5103   -2.7898    8.0285 H   0  0  0  0  0  0  0  0  0  0  0  0
   -6.5804   -2.4873    9.7698 H   0  0  0  0  0  0  0  0  0  0  0  0
   -5.2169   -3.3848    9.0815 H   0  0  0  0  0  0  0  0  0  0  0  0
   -8.0457   -1.2267    2.4479 H   0  0  0  0  0  0  0  0  0  0  0  0
   -6.2950   -1.5488    2.6014 H   0  0  0  0  0  0  0  0  0  0  0  0
   -6.9017    0.0910    4.3117 H   0  0  0  0  0  0  0  0  0  0  0  0
   -5.9666    0.9242    3.0695 H   0  0  0  0  0  0  0  0  0  0  0  0
   -7.7256    1.1112    3.1147 H   0  0  0  0  0  0  0  0  0  0  0  0
   -7.7452   -0.2761   -1.4109 H   0  0  0  0  0  0  0  0  0  0  0  0
   -7.3847    1.4006   -0.9932 H   0  0  0  0  0  0  0  0  0  0  0  0
   -7.6981    1.2193   -3.3541 H   0  0  0  0  0  0  0  0  0  0  0  0
   -6.0663    1.3500   -3.1603 H   0  0  0  0  0  0  0  0  0  0  0  0
   -0.7409    0.2112   -3.0679 H   0  0  0  0  0  0  0  0  0  0  0  0
   -3.7234    0.6588   -3.6158 H   0  0  0  0  0  0  0  0  0  0  0  0
    4.5888   -0.6561   -5.2989 H   0  0  0  0  0  0  0  0  0  0  0  0
    4.6573   -0.1561   -7.0186 H   0  0  0  0  0  0  0  0  0  0  0  0
    6.2879    1.1401   -5.6168 H   0  0  0  0  0  0  0  0  0  0  0  0
    5.0659    2.1825   -6.3557 H   0  0  0  0  0  0  0  0  0  0  0  0
    4.9394    1.7542   -4.6434 H   0  0  0  0  0  0  0  0  0  0  0  0
   -5.3564    3.3733  -11.3469 H   0  0  0  0  0  0  0  0  0  0  0  0
    1.8371    7.9415   -8.9603 H   0  0  0  0  0  0  0  0  0  0  0  0
    1.0038    8.6255  -10.3926 H   0  0  0  0  0  0  0  0  0  0  0  0
    3.3491    7.9228  -10.9433 H   0  0  0  0  0  0  0  0  0  0  0  0
    2.1503    7.0025  -11.8617 H   0  0  0  0  0  0  0  0  0  0  0  0
    2.9504    6.2638  -10.4654 H   0  0  0  0  0  0  0  0  0  0  0  0
  1  2  1  0  0  0  0
  2  3  1  0  0  0  0
  3  4  2  0  0  0  0
  4  5  1  0  0  0  0
  5  6  1  0  0  0  0
  6  7  1  0  0  0  0
  7  8  2  0  0  0  0
  7  9  1  0  0  0  0
  9 10  1  0  0  0  0
 10 11  1  0  0  0  0
  6 12  2  0  0  0  0
 12 13  1  0  0  0  0
 12 14  1  0  0  0  0
  3 15  1  0  0  0  0
 15 16  1  0  0  0  0
 16 17  1  0  0  0  0
 17 18  2  0  0  0  0
 18 19  1  0  0  0  0
 19 20  1  0  0  0  0
 20 21  1  0  0  0  0
 21 22  2  0  0  0  0
 21 23  1  0  0  0  0
 23 24  1  0  0  0  0
 24 25  1  0  0  0  0
 20 26  2  0  0  0  0
 26 27  1  0  0  0  0
 26 28  1  0  0  0  0
 17 29  1  0  0  0  0
 29 30  1  0  0  0  0
 30 31  1  0  0  0  0
 31 32  2  0  0  0  0
 32 33  1  0  0  0  0
 33 34  1  0  0  0  0
 34 35  1  0  0  0  0
 35 36  2  0  0  0  0
 35 37  1  0  0  0  0
 37 38  1  0  0  0  0
 38 39  1  0  0  0  0
 34 40  2  0  0  0  0
 40 41  1  0  0  0  0
 40 42  1  0  0  0  0
 31 43  1  0  0  0  0
 43 44  1  0  0  0  0
 44 45  1  0  0  0  0
 45 46  2  0  0  0  0
 46 47  1  0  0  0  0
 47 48  1  0  0  0  0
 48 49  2  0  0  0  0
 49 50  1  0  0  0  0
 50 51  1  0  0  0  0
 51 52  1  0  0  0  0
 49 53  1  0  0  0  0
 53 54  1  0  0  0  0
 54 55  1  0  0  0  0
 53 56  2  0  0  0  0
 45 57  1  0  0  0  0
 57 58  2  0  0  0  0
 58 59  1  0  0  0  0
 59 60  1  0  0  0  0
 60 61  1  0  0  0  0
 61 62  2  0  0  0  0
 62 63  1  0  0  0  0
 63 64  1  0  0  0  0
 64 65  1  0  0  0  0
 65 66  2  0  0  0  0
 65 67  1  0  0  0  0
 67 68  1  0  0  0  0
 68 69  1  0  0  0  0
 64 70  2  0  0  0  0
 70 71  1  0  0  0  0
 70 72  1  0  0  0  0
 61 73  1  0  0  0  0
 73 74  1  0  0  0  0
 74 75  1  0  0  0  0
 75 76  2  0  0  0  0
 76 77  1  0  0  0  0
 77 78  1  0  0  0  0
 78 79  1  0  0  0  0
 79 80  2  0  0  0  0
 79 81  1  0  0  0  0
 81 82  1  0  0  0  0
 82 83  1  0  0  0  0
 78 84  2  0  0  0  0
 84 85  1  0  0  0  0
 84 86  1  0  0  0  0
 13  1  2  0  0  0  0
 27 15  2  0  0  0  0
 41 29  2  0  0  0  0
 47 43  2  0  0  0  0
 71 59  2  0  0  0  0
 85 73  2  0  0  0  0
 13  4  1  0  0  0  0
 27 18  1  0  0  0  0
 41 32  1  0  0  0  0
 56 46  1  0  0  0  0
 71 62  1  0  0  0  0
 85 76  1  0  0  0  0
  1 87  1  0  0  0  0
 10 88  1  0  0  0  0
 10 89  1  0  0  0  0
 11 90  1  0  0  0  0
 11 91  1  0  0  0  0
 11 92  1  0  0  0  0
 24 93  1  0  0  0  0
 24 94  1  0  0  0  0
 25 95  1  0  0  0  0
 25 96  1  0  0  0  0
 25 97  1  0  0  0  0
 38 98  1  0  0  0  0
 38 99  1  0  0  0  0
 39100  1  0  0  0  0
 39101  1  0  0  0  0
 39102  1  0  0  0  0
 51103  1  0  0  0  0
 51104  1  0  0  0  0
 52105  1  0  0  0  0
 52106  1  0  0  0  0
 52107  1  0  0  0  0
 54108  1  0  0  0  0
 54109  1  0  0  0  0
 55110  1  0  0  0  0
 55111  1  0  0  0  0
 57112  1  0  0  0  0
 58113  1  0  0  0  0
 68114  1  0  0  0  0
 68115  1  0  0  0  0
 69116  1  0  0  0  0
 69117  1  0  0  0  0
 69118  1  0  0  0  0
 75119  1  0  0  0  0
 82120  1  0  0  0  0
 82121  1  0  0  0  0
 83122  1  0  0  0  0
 83123  1  0  0  0  0
 83124  1  0  0  0  0
M  END
