
  xtb     03012203013D
 energy: -468.724953538814 gnorm: 0.001303351311 xtb: 6.4.1 (unknown)
239265  0     0  0            999 V2000
   14.4113   -3.9021   -0.0483 C   0  0  0  0  0  0  0  0  0  0  0  0
   13.6796   -4.9658    0.3407 C   0  0  0  0  0  0  0  0  0  0  0  0
   13.1623   -4.8279    1.6618 C   0  0  0  0  0  0  0  0  0  0  0  0
   12.3275   -5.7088    2.3660 C   0  0  0  0  0  0  0  0  0  0  0  0
   11.8397   -6.9447    1.7735 C   0  0  0  0  0  0  0  0  0  0  0  0
   10.9501   -6.9460    0.2800 S   0  0  0  0  0  0  0  0  0  0  0  0
   10.7260   -8.6613    0.3240 C   0  0  0  0  0  0  0  0  0  0  0  0
    9.9297   -9.3657   -0.7183 C   0  0  0  0  0  0  0  0  0  0  0  0
    8.4482   -9.4045   -0.3351 C   0  0  0  0  0  0  0  0  0  0  0  0
   11.3068   -9.1859    1.4397 C   0  0  0  0  0  0  0  0  0  0  0  0
   11.2981  -10.8579    1.8249 Cl  0  0  0  0  0  0  0  0  0  0  0  0
   11.9392   -8.2164    2.2635 C   0  0  0  0  0  0  0  0  0  0  0  0
   12.8015   -8.6347    3.6846 Cl  0  0  0  0  0  0  0  0  0  0  0  0
   11.9517   -5.3366    3.6494 C   0  0  0  0  0  0  0  0  0  0  0  0
   12.3793   -4.1288    4.2560 C   0  0  0  0  0  0  0  0  0  0  0  0
   13.1864   -3.2317    3.5380 C   0  0  0  0  0  0  0  0  0  0  0  0
   13.5092   -1.9213    4.0785 C   0  0  0  0  0  0  0  0  0  0  0  0
   12.2327   -0.8486    4.5732 S   0  0  0  0  0  0  0  0  0  0  0  0
   13.3426    0.4182    4.9725 C   0  0  0  0  0  0  0  0  0  0  0  0
   12.8566    1.7396    5.4570 C   0  0  0  0  0  0  0  0  0  0  0  0
   12.2922    2.5721    4.3037 C   0  0  0  0  0  0  0  0  0  0  0  0
   14.6217    0.0172    4.7292 C   0  0  0  0  0  0  0  0  0  0  0  0
   14.7204   -1.3079    4.2223 C   0  0  0  0  0  0  0  0  0  0  0  0
   16.2257   -2.0633    3.9037 Cl  0  0  0  0  0  0  0  0  0  0  0  0
   16.0044    0.9946    5.0167 Cl  0  0  0  0  0  0  0  0  0  0  0  0
   13.5700   -3.6106    2.2571 C   0  0  0  0  0  0  0  0  0  0  0  0
   14.5330   -2.6667    1.1559 S   0  0  0  0  0  0  0  0  0  0  0  0
   11.8518   -3.9748    5.5595 C   0  0  0  0  0  0  0  0  0  0  0  0
   10.9989   -4.9796    5.9175 C   0  0  0  0  0  0  0  0  0  0  0  0
   10.8459   -6.2018    4.6734 S   0  0  0  0  0  0  0  0  0  0  0  0
   10.2742   -5.0816    7.1348 C   0  0  0  0  0  0  0  0  0  0  0  0
    8.8568   -6.0680    7.2785 S   0  0  0  0  0  0  0  0  0  0  0  0
    8.5924   -5.6352    8.9331 C   0  0  0  0  0  0  0  0  0  0  0  0
    9.6144   -4.7968    9.3695 C   0  0  0  0  0  0  0  0  0  0  0  0
   10.5440   -4.4465    8.3422 C   0  0  0  0  0  0  0  0  0  0  0  0
   11.5705   -3.5978    8.5887 N   0  0  0  0  0  0  0  0  0  0  0  0
   11.6749   -3.1553    9.8113 C   0  0  0  0  0  0  0  0  0  0  0  0
   12.6699   -2.3354   10.1555 O   0  0  0  0  0  0  0  0  0  0  0  0
   13.5944   -1.9671    9.1349 C   0  0  0  0  0  0  0  0  0  0  0  0
   13.0639   -0.8279    8.2758 C   0  0  0  0  0  0  0  0  0  0  0  0
   10.7444   -3.5177   10.8591 C   0  0  0  0  0  0  0  0  0  0  0  0
   10.9216   -2.9471   12.2314 C   0  0  0  0  0  0  0  0  0  0  0  0
   10.1729   -3.6922   13.2215 N   0  0  0  0  0  0  0  0  0  0  0  0
    9.7367   -4.3031   10.6240 N   0  0  0  0  0  0  0  0  0  0  0  0
    7.5357   -6.1489    9.7484 C   0  0  0  0  0  0  0  0  0  0  0  0
    6.2473   -6.3801    9.4228 C   0  0  0  0  0  0  0  0  0  0  0  0
    5.5322   -5.9727    8.2502 C   0  0  0  0  0  0  0  0  0  0  0  0
    5.8268   -5.0322    7.3052 C   0  0  0  0  0  0  0  0  0  0  0  0
    4.7740   -4.7822    6.3940 C   0  0  0  0  0  0  0  0  0  0  0  0
    4.7636   -3.8703    5.3252 C   0  0  0  0  0  0  0  0  0  0  0  0
    5.9605   -3.1329    4.9411 C   0  0  0  0  0  0  0  0  0  0  0  0
    6.0308   -1.3986    5.0090 S   0  0  0  0  0  0  0  0  0  0  0  0
    7.6402   -1.3638    4.3714 C   0  0  0  0  0  0  0  0  0  0  0  0
    8.3791   -0.0811    4.2127 C   0  0  0  0  0  0  0  0  0  0  0  0
    8.9280    0.4037    5.5562 C   0  0  0  0  0  0  0  0  0  0  0  0
    8.0804   -2.6297    4.1252 C   0  0  0  0  0  0  0  0  0  0  0  0
    9.6088   -2.9896    3.4321 Cl  0  0  0  0  0  0  0  0  0  0  0  0
    7.1331   -3.6369    4.4565 C   0  0  0  0  0  0  0  0  0  0  0  0
    7.4224   -5.3113    4.2190 Cl  0  0  0  0  0  0  0  0  0  0  0  0
    3.5668   -3.7089    4.6455 C   0  0  0  0  0  0  0  0  0  0  0  0
    2.4020   -4.4462    4.9678 C   0  0  0  0  0  0  0  0  0  0  0  0
    2.4357   -5.4266    5.9758 C   0  0  0  0  0  0  0  0  0  0  0  0
    1.2546   -6.2319    6.2363 C   0  0  0  0  0  0  0  0  0  0  0  0
    0.5467   -6.3524    7.8192 S   0  0  0  0  0  0  0  0  0  0  0  0
   -0.7643   -7.3237    7.2436 C   0  0  0  0  0  0  0  0  0  0  0  0
   -1.8721   -7.7512    8.1417 C   0  0  0  0  0  0  0  0  0  0  0  0
   -3.0286   -6.7491    8.0899 C   0  0  0  0  0  0  0  0  0  0  0  0
   -0.6433   -7.5404    5.9028 C   0  0  0  0  0  0  0  0  0  0  0  0
    0.5014   -6.9273    5.3292 C   0  0  0  0  0  0  0  0  0  0  0  0
    0.9129   -7.1141    3.6725 Cl  0  0  0  0  0  0  0  0  0  0  0  0
   -1.7622   -8.4540    4.9772 Cl  0  0  0  0  0  0  0  0  0  0  0  0
    3.6197   -5.5518    6.6872 C   0  0  0  0  0  0  0  0  0  0  0  0
    3.9042   -6.6074    8.0368 S   0  0  0  0  0  0  0  0  0  0  0  0
    1.2926   -4.0395    4.1919 C   0  0  0  0  0  0  0  0  0  0  0  0
    1.5910   -3.0727    3.2766 C   0  0  0  0  0  0  0  0  0  0  0  0
    3.2772   -2.6065    3.3278 S   0  0  0  0  0  0  0  0  0  0  0  0
    0.6589   -2.4785    2.3727 C   0  0  0  0  0  0  0  0  0  0  0  0
   -0.6989   -2.5275    2.4935 C   0  0  0  0  0  0  0  0  0  0  0  0
   -1.3861   -1.8980    1.4306 C   0  0  0  0  0  0  0  0  0  0  0  0
   -2.7783   -1.8076    1.2446 C   0  0  0  0  0  0  0  0  0  0  0  0
   -3.6899   -2.5063    2.1314 C   0  0  0  0  0  0  0  0  0  0  0  0
   -5.0629   -1.7019    2.8344 S   0  0  0  0  0  0  0  0  0  0  0  0
   -5.5371   -3.1109    3.7196 C   0  0  0  0  0  0  0  0  0  0  0  0
   -6.7660   -3.1132    4.5597 C   0  0  0  0  0  0  0  0  0  0  0  0
   -8.0102   -3.3593    3.7029 C   0  0  0  0  0  0  0  0  0  0  0  0
   -4.6819   -4.1408    3.4633 C   0  0  0  0  0  0  0  0  0  0  0  0
   -4.8198   -5.7011    4.1646 Cl  0  0  0  0  0  0  0  0  0  0  0  0
   -3.6348   -3.8051    2.5640 C   0  0  0  0  0  0  0  0  0  0  0  0
   -2.4931   -4.9728    2.0278 Cl  0  0  0  0  0  0  0  0  0  0  0  0
   -3.2142   -1.0174    0.1892 C   0  0  0  0  0  0  0  0  0  0  0  0
   -2.3213   -0.3923   -0.7158 C   0  0  0  0  0  0  0  0  0  0  0  0
   -0.9315   -0.5855   -0.5996 C   0  0  0  0  0  0  0  0  0  0  0  0
   -0.0217   -0.0495   -1.5945 C   0  0  0  0  0  0  0  0  0  0  0  0
    1.4091    0.8285   -1.1373 S   0  0  0  0  0  0  0  0  0  0  0  0
    1.8619    1.1060   -2.7835 C   0  0  0  0  0  0  0  0  0  0  0  0
    3.1273    1.8111   -3.1261 C   0  0  0  0  0  0  0  0  0  0  0  0
    4.2990    0.8265   -3.1678 C   0  0  0  0  0  0  0  0  0  0  0  0
    0.9573    0.5333   -3.6274 C   0  0  0  0  0  0  0  0  0  0  0  0
   -0.1115   -0.1220   -2.9597 C   0  0  0  0  0  0  0  0  0  0  0  0
   -1.3202   -0.9900   -3.8187 Cl  0  0  0  0  0  0  0  0  0  0  0  0
    1.0666    0.5997   -5.3392 Cl  0  0  0  0  0  0  0  0  0  0  0  0
   -0.4935   -1.3065    0.5035 C   0  0  0  0  0  0  0  0  0  0  0  0
    1.1650   -1.6155    0.9377 S   0  0  0  0  0  0  0  0  0  0  0  0
   -3.0047    0.4080   -1.6599 C   0  0  0  0  0  0  0  0  0  0  0  0
   -4.3626    0.3672   -1.5311 C   0  0  0  0  0  0  0  0  0  0  0  0
   -4.8708   -0.6599   -0.2093 S   0  0  0  0  0  0  0  0  0  0  0  0
   -5.3058    1.0526   -2.3543 C   0  0  0  0  0  0  0  0  0  0  0  0
   -5.0269    1.7160   -3.5138 C   0  0  0  0  0  0  0  0  0  0  0  0
   -6.1645    2.2948   -4.1213 C   0  0  0  0  0  0  0  0  0  0  0  0
   -6.2252    3.0094   -5.3310 C   0  0  0  0  0  0  0  0  0  0  0  0
   -5.0589    3.1365   -6.1861 C   0  0  0  0  0  0  0  0  0  0  0  0
   -4.5594    4.6817   -6.8092 S   0  0  0  0  0  0  0  0  0  0  0  0
   -3.2036    3.9977   -7.6407 C   0  0  0  0  0  0  0  0  0  0  0  0
   -2.3104    4.8502   -8.4721 C   0  0  0  0  0  0  0  0  0  0  0  0
   -3.0164    5.2974   -9.7539 C   0  0  0  0  0  0  0  0  0  0  0  0
   -3.1601    2.6495   -7.4461 C   0  0  0  0  0  0  0  0  0  0  0  0
   -1.9572    1.6190   -8.1083 Cl  0  0  0  0  0  0  0  0  0  0  0  0
   -4.2077    2.1569   -6.6216 C   0  0  0  0  0  0  0  0  0  0  0  0
   -4.4058    0.4807   -6.3038 Cl  0  0  0  0  0  0  0  0  0  0  0  0
   -7.4452    3.5882   -5.6516 C   0  0  0  0  0  0  0  0  0  0  0  0
   -8.6060    3.4397   -4.8526 C   0  0  0  0  0  0  0  0  0  0  0  0
   -8.5669    2.6362   -3.6984 C   0  0  0  0  0  0  0  0  0  0  0  0
   -9.7636    2.3820   -2.9165 C   0  0  0  0  0  0  0  0  0  0  0  0
   -9.7854    2.6009   -1.1916 S   0  0  0  0  0  0  0  0  0  0  0  0
  -11.4394    2.1082   -1.0715 C   0  0  0  0  0  0  0  0  0  0  0  0
  -12.1199    2.0174    0.2494 C   0  0  0  0  0  0  0  0  0  0  0  0
  -11.7716    0.7030    0.9519 C   0  0  0  0  0  0  0  0  0  0  0  0
  -11.9284    1.7836   -2.3018 C   0  0  0  0  0  0  0  0  0  0  0  0
  -10.9846    1.9438   -3.3513 C   0  0  0  0  0  0  0  0  0  0  0  0
  -11.3419    1.5361   -4.9803 Cl  0  0  0  0  0  0  0  0  0  0  0  0
  -13.5302    1.2349   -2.5816 Cl  0  0  0  0  0  0  0  0  0  0  0  0
   -7.3344    2.1006   -3.3472 C   0  0  0  0  0  0  0  0  0  0  0  0
   -7.0051    1.1242   -1.9431 S   0  0  0  0  0  0  0  0  0  0  0  0
   -9.6927    4.1964   -5.3580 C   0  0  0  0  0  0  0  0  0  0  0  0
   -9.4022    4.8578   -6.5135 C   0  0  0  0  0  0  0  0  0  0  0  0
   -7.7557    4.5796   -7.0459 S   0  0  0  0  0  0  0  0  0  0  0  0
  -10.2296    5.7445   -7.2626 C   0  0  0  0  0  0  0  0  0  0  0  0
   -9.9055    6.3665   -8.4310 C   0  0  0  0  0  0  0  0  0  0  0  0
  -10.9072    7.2508   -8.8989 C   0  0  0  0  0  0  0  0  0  0  0  0
  -10.8912    8.0344  -10.0645 C   0  0  0  0  0  0  0  0  0  0  0  0
   -9.7091    8.0858  -10.9068 C   0  0  0  0  0  0  0  0  0  0  0  0
   -9.7951    7.8031  -12.6194 S   0  0  0  0  0  0  0  0  0  0  0  0
   -8.0885    8.0066  -12.8182 C   0  0  0  0  0  0  0  0  0  0  0  0
   -7.4375    7.8275  -14.1452 C   0  0  0  0  0  0  0  0  0  0  0  0
   -6.9919    6.3766  -14.3445 C   0  0  0  0  0  0  0  0  0  0  0  0
   -7.5005    8.2749  -11.6181 C   0  0  0  0  0  0  0  0  0  0  0  0
   -5.8153    8.5301  -11.4157 Cl  0  0  0  0  0  0  0  0  0  0  0  0
   -8.4146    8.3281  -10.5329 C   0  0  0  0  0  0  0  0  0  0  0  0
   -7.9263    8.7448   -8.9402 Cl  0  0  0  0  0  0  0  0  0  0  0  0
  -12.0464    8.7494  -10.3560 C   0  0  0  0  0  0  0  0  0  0  0  0
  -13.1838    8.7506   -9.5142 C   0  0  0  0  0  0  0  0  0  0  0  0
  -13.1791    8.0082   -8.3222 C   0  0  0  0  0  0  0  0  0  0  0  0
  -14.3165    8.0110   -7.4153 C   0  0  0  0  0  0  0  0  0  0  0  0
  -15.9133    7.5867   -7.9579 S   0  0  0  0  0  0  0  0  0  0  0  0
  -16.5907    7.7874   -6.3786 C   0  0  0  0  0  0  0  0  0  0  0  0
  -18.0483    7.6117   -6.1302 C   0  0  0  0  0  0  0  0  0  0  0  0
  -18.7921    8.9412   -6.2787 C   0  0  0  0  0  0  0  0  0  0  0  0
  -15.6260    8.1727   -5.4966 C   0  0  0  0  0  0  0  0  0  0  0  0
  -14.3351    8.2941   -6.0778 C   0  0  0  0  0  0  0  0  0  0  0  0
  -12.9726    8.8279   -5.1858 Cl  0  0  0  0  0  0  0  0  0  0  0  0
  -15.9214    8.4814   -3.8351 Cl  0  0  0  0  0  0  0  0  0  0  0  0
  -12.0387    7.2635   -8.0467 C   0  0  0  0  0  0  0  0  0  0  0  0
  -11.8199    6.1974   -6.6874 S   0  0  0  0  0  0  0  0  0  0  0  0
  -14.2087    9.6023  -10.0212 C   0  0  0  0  0  0  0  0  0  0  0  0
  -13.8657   10.2023  -11.1790 C   0  0  0  0  0  0  0  0  0  0  0  0
  -12.2809    9.7875  -11.7338 S   0  0  0  0  0  0  0  0  0  0  0  0
   14.9098   -3.7522   -0.9859 H   0  0  0  0  0  0  0  0  0  0  0  0
   13.5039   -5.8276   -0.2766 H   0  0  0  0  0  0  0  0  0  0  0  0
   10.0462   -8.8514   -1.6736 H   0  0  0  0  0  0  0  0  0  0  0  0
   10.3070  -10.3852   -0.8194 H   0  0  0  0  0  0  0  0  0  0  0  0
    8.0601   -8.3947   -0.2250 H   0  0  0  0  0  0  0  0  0  0  0  0
    7.8765   -9.9171   -1.1038 H   0  0  0  0  0  0  0  0  0  0  0  0
    8.3172   -9.9310    0.6068 H   0  0  0  0  0  0  0  0  0  0  0  0
   13.6903    2.2696    5.9200 H   0  0  0  0  0  0  0  0  0  0  0  0
   12.0794    1.5858    6.2084 H   0  0  0  0  0  0  0  0  0  0  0  0
   13.0627    2.7548    3.5592 H   0  0  0  0  0  0  0  0  0  0  0  0
   11.9318    3.5286    4.6730 H   0  0  0  0  0  0  0  0  0  0  0  0
   11.4685    2.0458    3.8271 H   0  0  0  0  0  0  0  0  0  0  0  0
   12.0695   -3.1516    6.2125 H   0  0  0  0  0  0  0  0  0  0  0  0
   14.4933   -1.6584    9.6730 H   0  0  0  0  0  0  0  0  0  0  0  0
   13.8115   -2.8420    8.5144 H   0  0  0  0  0  0  0  0  0  0  0  0
   12.1657   -1.1421    7.7500 H   0  0  0  0  0  0  0  0  0  0  0  0
   13.8178   -0.5405    7.5487 H   0  0  0  0  0  0  0  0  0  0  0  0
   12.8250    0.0316    8.8976 H   0  0  0  0  0  0  0  0  0  0  0  0
   11.9866   -2.9742   12.4903 H   0  0  0  0  0  0  0  0  0  0  0  0
   10.6386   -1.8795   12.1678 H   0  0  0  0  0  0  0  0  0  0  0  0
    9.3002   -4.0092   12.8130 H   0  0  0  0  0  0  0  0  0  0  0  0
    9.9715   -3.1202   14.0325 H   0  0  0  0  0  0  0  0  0  0  0  0
    7.8420   -6.3473   10.7686 H   0  0  0  0  0  0  0  0  0  0  0  0
    5.6285   -6.8664   10.1660 H   0  0  0  0  0  0  0  0  0  0  0  0
    6.7454   -4.4773    7.2802 H   0  0  0  0  0  0  0  0  0  0  0  0
    7.7087    0.6754    3.8007 H   0  0  0  0  0  0  0  0  0  0  0  0
    9.2053   -0.2392    3.5177 H   0  0  0  0  0  0  0  0  0  0  0  0
    9.6265   -0.3258    5.9585 H   0  0  0  0  0  0  0  0  0  0  0  0
    9.4466    1.3495    5.4271 H   0  0  0  0  0  0  0  0  0  0  0  0
    8.1162    0.5438    6.2660 H   0  0  0  0  0  0  0  0  0  0  0  0
   -1.5004   -7.8304    9.1641 H   0  0  0  0  0  0  0  0  0  0  0  0
   -2.2280   -8.7320    7.8195 H   0  0  0  0  0  0  0  0  0  0  0  0
   -3.4109   -6.6674    7.0756 H   0  0  0  0  0  0  0  0  0  0  0  0
   -3.8352   -7.0761    8.7404 H   0  0  0  0  0  0  0  0  0  0  0  0
   -2.6928   -5.7673    8.4151 H   0  0  0  0  0  0  0  0  0  0  0  0
    0.3073   -4.4487    4.3090 H   0  0  0  0  0  0  0  0  0  0  0  0
   -1.1939   -2.9641    3.3396 H   0  0  0  0  0  0  0  0  0  0  0  0
   -6.6756   -3.8993    5.3114 H   0  0  0  0  0  0  0  0  0  0  0  0
   -6.8603   -2.1513    5.0665 H   0  0  0  0  0  0  0  0  0  0  0  0
   -7.9395   -4.3224    3.2038 H   0  0  0  0  0  0  0  0  0  0  0  0
   -8.1072   -2.5829    2.9479 H   0  0  0  0  0  0  0  0  0  0  0  0
   -8.8999   -3.3547    4.3267 H   0  0  0  0  0  0  0  0  0  0  0  0
    3.3263    2.5822   -2.3802 H   0  0  0  0  0  0  0  0  0  0  0  0
    3.0132    2.2860   -4.1024 H   0  0  0  0  0  0  0  0  0  0  0  0
    4.1266    0.0699   -3.9288 H   0  0  0  0  0  0  0  0  0  0  0  0
    5.2207    1.3521   -3.4016 H   0  0  0  0  0  0  0  0  0  0  0  0
    4.4113    0.3327   -2.2054 H   0  0  0  0  0  0  0  0  0  0  0  0
   -2.5042    1.0203   -2.3852 H   0  0  0  0  0  0  0  0  0  0  0  0
   -4.0369    1.7980   -3.9195 H   0  0  0  0  0  0  0  0  0  0  0  0
   -1.4155    4.2777   -8.7208 H   0  0  0  0  0  0  0  0  0  0  0  0
   -2.0132    5.7315   -7.8999 H   0  0  0  0  0  0  0  0  0  0  0  0
   -3.3100    4.4333  -10.3448 H   0  0  0  0  0  0  0  0  0  0  0  0
   -3.9071    5.8721   -9.5119 H   0  0  0  0  0  0  0  0  0  0  0  0
   -2.3519    5.9175  -10.3494 H   0  0  0  0  0  0  0  0  0  0  0  0
  -13.1984    2.0766    0.0930 H   0  0  0  0  0  0  0  0  0  0  0  0
  -11.8095    2.8558    0.8755 H   0  0  0  0  0  0  0  0  0  0  0  0
  -10.6978    0.6329    1.1084 H   0  0  0  0  0  0  0  0  0  0  0  0
  -12.2706    0.6517    1.9158 H   0  0  0  0  0  0  0  0  0  0  0  0
  -12.0910   -0.1430    0.3484 H   0  0  0  0  0  0  0  0  0  0  0  0
  -10.6489    4.2725   -4.8728 H   0  0  0  0  0  0  0  0  0  0  0  0
   -8.9795    6.1815   -8.9439 H   0  0  0  0  0  0  0  0  0  0  0  0
   -8.1414    8.1034  -14.9312 H   0  0  0  0  0  0  0  0  0  0  0  0
   -6.5689    8.4860  -14.2036 H   0  0  0  0  0  0  0  0  0  0  0  0
   -7.8488    5.7090  -14.2962 H   0  0  0  0  0  0  0  0  0  0  0  0
   -6.2836    6.0906  -13.5712 H   0  0  0  0  0  0  0  0  0  0  0  0
   -6.5146    6.2632  -15.3140 H   0  0  0  0  0  0  0  0  0  0  0  0
  -18.4513    6.8864   -6.8387 H   0  0  0  0  0  0  0  0  0  0  0  0
  -18.1884    7.2287   -5.1176 H   0  0  0  0  0  0  0  0  0  0  0  0
  -18.4118    9.6662   -5.5642 H   0  0  0  0  0  0  0  0  0  0  0  0
  -19.8536    8.7968   -6.0973 H   0  0  0  0  0  0  0  0  0  0  0  0
  -18.6606    9.3390   -7.2819 H   0  0  0  0  0  0  0  0  0  0  0  0
  -15.1523    9.7516   -9.5300 H   0  0  0  0  0  0  0  0  0  0  0  0
  -14.4502   10.8840  -11.7652 H   0  0  0  0  0  0  0  0  0  0  0  0
  1  2  2  0  0  0  0
  2  3  1  0  0  0  0
  3  4  2  0  0  0  0
  4  5  1  0  0  0  0
  5  6  1  0  0  0  0
  6  7  1  0  0  0  0
  7  8  1  0  0  0  0
  8  9  1  0  0  0  0
  7 10  2  0  0  0  0
 10 11  1  0  0  0  0
 10 12  1  0  0  0  0
 12 13  1  0  0  0  0
  4 14  1  0  0  0  0
 14 15  2  0  0  0  0
 15 16  1  0  0  0  0
 16 17  1  0  0  0  0
 17 18  1  0  0  0  0
 18 19  1  0  0  0  0
 19 20  1  0  0  0  0
 20 21  1  0  0  0  0
 19 22  2  0  0  0  0
 22 23  1  0  0  0  0
 23 24  1  0  0  0  0
 22 25  1  0  0  0  0
 16 26  2  0  0  0  0
 26 27  1  0  0  0  0
 15 28  1  0  0  0  0
 28 29  2  0  0  0  0
 29 30  1  0  0  0  0
 29 31  1  0  0  0  0
 31 32  1  0  0  0  0
 32 33  1  0  0  0  0
 33 34  2  0  0  0  0
 34 35  1  0  0  0  0
 35 36  1  0  0  0  0
 36 37  2  0  0  0  0
 37 38  1  0  0  0  0
 38 39  1  0  0  0  0
 39 40  1  0  0  0  0
 37 41  1  0  0  0  0
 41 42  1  0  0  0  0
 42 43  1  0  0  0  0
 41 44  2  0  0  0  0
 33 45  1  0  0  0  0
 45 46  2  0  0  0  0
 46 47  1  0  0  0  0
 47 48  2  0  0  0  0
 48 49  1  0  0  0  0
 49 50  2  0  0  0  0
 50 51  1  0  0  0  0
 51 52  1  0  0  0  0
 52 53  1  0  0  0  0
 53 54  1  0  0  0  0
 54 55  1  0  0  0  0
 53 56  2  0  0  0  0
 56 57  1  0  0  0  0
 56 58  1  0  0  0  0
 58 59  1  0  0  0  0
 50 60  1  0  0  0  0
 60 61  2  0  0  0  0
 61 62  1  0  0  0  0
 62 63  1  0  0  0  0
 63 64  1  0  0  0  0
 64 65  1  0  0  0  0
 65 66  1  0  0  0  0
 66 67  1  0  0  0  0
 65 68  2  0  0  0  0
 68 69  1  0  0  0  0
 69 70  1  0  0  0  0
 68 71  1  0  0  0  0
 62 72  2  0  0  0  0
 72 73  1  0  0  0  0
 61 74  1  0  0  0  0
 74 75  2  0  0  0  0
 75 76  1  0  0  0  0
 75 77  1  0  0  0  0
 77 78  2  0  0  0  0
 78 79  1  0  0  0  0
 79 80  2  0  0  0  0
 80 81  1  0  0  0  0
 81 82  1  0  0  0  0
 82 83  1  0  0  0  0
 83 84  1  0  0  0  0
 84 85  1  0  0  0  0
 83 86  2  0  0  0  0
 86 87  1  0  0  0  0
 86 88  1  0  0  0  0
 88 89  1  0  0  0  0
 80 90  1  0  0  0  0
 90 91  2  0  0  0  0
 91 92  1  0  0  0  0
 92 93  1  0  0  0  0
 93 94  1  0  0  0  0
 94 95  1  0  0  0  0
 95 96  1  0  0  0  0
 96 97  1  0  0  0  0
 95 98  2  0  0  0  0
 98 99  1  0  0  0  0
 99100  1  0  0  0  0
 98101  1  0  0  0  0
 92102  2  0  0  0  0
102103  1  0  0  0  0
 91104  1  0  0  0  0
104105  2  0  0  0  0
105106  1  0  0  0  0
105107  1  0  0  0  0
107108  2  0  0  0  0
108109  1  0  0  0  0
109110  2  0  0  0  0
110111  1  0  0  0  0
111112  1  0  0  0  0
112113  1  0  0  0  0
113114  1  0  0  0  0
114115  1  0  0  0  0
113116  2  0  0  0  0
116117  1  0  0  0  0
116118  1  0  0  0  0
118119  1  0  0  0  0
110120  1  0  0  0  0
120121  2  0  0  0  0
121122  1  0  0  0  0
122123  1  0  0  0  0
123124  1  0  0  0  0
124125  1  0  0  0  0
125126  1  0  0  0  0
126127  1  0  0  0  0
125128  2  0  0  0  0
128129  1  0  0  0  0
129130  1  0  0  0  0
128131  1  0  0  0  0
122132  2  0  0  0  0
132133  1  0  0  0  0
121134  1  0  0  0  0
134135  2  0  0  0  0
135136  1  0  0  0  0
135137  1  0  0  0  0
137138  2  0  0  0  0
138139  1  0  0  0  0
139140  2  0  0  0  0
140141  1  0  0  0  0
141142  1  0  0  0  0
142143  1  0  0  0  0
143144  1  0  0  0  0
144145  1  0  0  0  0
143146  2  0  0  0  0
146147  1  0  0  0  0
146148  1  0  0  0  0
148149  1  0  0  0  0
140150  1  0  0  0  0
150151  2  0  0  0  0
151152  1  0  0  0  0
152153  1  0  0  0  0
153154  1  0  0  0  0
154155  1  0  0  0  0
155156  1  0  0  0  0
156157  1  0  0  0  0
155158  2  0  0  0  0
158159  1  0  0  0  0
159160  1  0  0  0  0
158161  1  0  0  0  0
152162  2  0  0  0  0
162163  1  0  0  0  0
151164  1  0  0  0  0
164165  2  0  0  0  0
165166  1  0  0  0  0
 27  1  1  0  0  0  0
 35 31  2  0  0  0  0
 73 47  1  0  0  0  0
103 77  1  0  0  0  0
133107  1  0  0  0  0
163137  1  0  0  0  0
 26  3  1  0  0  0  0
 44 34  1  0  0  0  0
 72 49  1  0  0  0  0
102 79  1  0  0  0  0
132109  1  0  0  0  0
162139  1  0  0  0  0
 12  5  2  0  0  0  0
 30 14  1  0  0  0  0
 58 51  2  0  0  0  0
 76 60  1  0  0  0  0
 88 81  2  0  0  0  0
106 90  1  0  0  0  0
118111  2  0  0  0  0
136120  1  0  0  0  0
148141  2  0  0  0  0
166150  1  0  0  0  0
 23 17  2  0  0  0  0
 69 63  2  0  0  0  0
 99 93  2  0  0  0  0
129123  2  0  0  0  0
159153  2  0  0  0  0
  1167  1  0  0  0  0
  2168  1  0  0  0  0
  8169  1  0  0  0  0
  8170  1  0  0  0  0
  9171  1  0  0  0  0
  9172  1  0  0  0  0
  9173  1  0  0  0  0
 20174  1  0  0  0  0
 20175  1  0  0  0  0
 21176  1  0  0  0  0
 21177  1  0  0  0  0
 21178  1  0  0  0  0
 28179  1  0  0  0  0
 39180  1  0  0  0  0
 39181  1  0  0  0  0
 40182  1  0  0  0  0
 40183  1  0  0  0  0
 40184  1  0  0  0  0
 42185  1  0  0  0  0
 42186  1  0  0  0  0
 43187  1  0  0  0  0
 43188  1  0  0  0  0
 45189  1  0  0  0  0
 46190  1  0  0  0  0
 48191  1  0  0  0  0
 54192  1  0  0  0  0
 54193  1  0  0  0  0
 55194  1  0  0  0  0
 55195  1  0  0  0  0
 55196  1  0  0  0  0
 66197  1  0  0  0  0
 66198  1  0  0  0  0
 67199  1  0  0  0  0
 67200  1  0  0  0  0
 67201  1  0  0  0  0
 74202  1  0  0  0  0
 78203  1  0  0  0  0
 84204  1  0  0  0  0
 84205  1  0  0  0  0
 85206  1  0  0  0  0
 85207  1  0  0  0  0
 85208  1  0  0  0  0
 96209  1  0  0  0  0
 96210  1  0  0  0  0
 97211  1  0  0  0  0
 97212  1  0  0  0  0
 97213  1  0  0  0  0
104214  1  0  0  0  0
108215  1  0  0  0  0
114216  1  0  0  0  0
114217  1  0  0  0  0
115218  1  0  0  0  0
115219  1  0  0  0  0
115220  1  0  0  0  0
126221  1  0  0  0  0
126222  1  0  0  0  0
127223  1  0  0  0  0
127224  1  0  0  0  0
127225  1  0  0  0  0
134226  1  0  0  0  0
138227  1  0  0  0  0
144228  1  0  0  0  0
144229  1  0  0  0  0
145230  1  0  0  0  0
145231  1  0  0  0  0
145232  1  0  0  0  0
156233  1  0  0  0  0
156234  1  0  0  0  0
157235  1  0  0  0  0
157236  1  0  0  0  0
157237  1  0  0  0  0
164238  1  0  0  0  0
165239  1  0  0  0  0
M  END
