
  xtb     03012207083D
 energy: -351.036206217084 gnorm: 0.000540509324 xtb: 6.4.1 (unknown)
194211  0     0  0            999 V2000
   -0.9229   -2.7548   -8.9662 C   0  0  0  0  0  0  0  0  0  0  0  0
   -0.9494   -1.5186   -8.4289 C   0  0  0  0  0  0  0  0  0  0  0  0
   -0.4738   -1.4895   -7.0867 C   0  0  0  0  0  0  0  0  0  0  0  0
   -0.3868   -0.3910   -6.2181 C   0  0  0  0  0  0  0  0  0  0  0  0
   -0.7203    0.9616   -6.6403 C   0  0  0  0  0  0  0  0  0  0  0  0
   -2.2700    1.3845   -7.3020 S   0  0  0  0  0  0  0  0  0  0  0  0
   -1.8383    3.0521   -7.4729 C   0  0  0  0  0  0  0  0  0  0  0  0
   -2.8291    4.0591   -7.9412 C   0  0  0  0  0  0  0  0  0  0  0  0
   -3.8059    4.4194   -6.8190 C   0  0  0  0  0  0  0  0  0  0  0  0
   -0.5588    3.2499   -7.0509 C   0  0  0  0  0  0  0  0  0  0  0  0
    0.2468    4.7646   -7.1065 Cl  0  0  0  0  0  0  0  0  0  0  0  0
    0.0768    2.0705   -6.5782 C   0  0  0  0  0  0  0  0  0  0  0  0
    1.7069    2.0593   -6.0511 Cl  0  0  0  0  0  0  0  0  0  0  0  0
    0.0580   -0.6385   -4.9267 C   0  0  0  0  0  0  0  0  0  0  0  0
    0.5142   -1.9109   -4.4963 C   0  0  0  0  0  0  0  0  0  0  0  0
    0.5219   -2.9939   -5.3983 C   0  0  0  0  0  0  0  0  0  0  0  0
    1.1107   -4.2740   -5.0475 C   0  0  0  0  0  0  0  0  0  0  0  0
    0.7559   -5.0637   -3.5450 S   0  0  0  0  0  0  0  0  0  0  0  0
    1.7823   -6.4046   -3.8949 C   0  0  0  0  0  0  0  0  0  0  0  0
    1.9138   -7.5365   -2.9371 C   0  0  0  0  0  0  0  0  0  0  0  0
    0.5859   -8.2746   -2.7664 C   0  0  0  0  0  0  0  0  0  0  0  0
    2.3672   -6.2370   -5.1131 C   0  0  0  0  0  0  0  0  0  0  0  0
    1.9998   -5.0305   -5.7647 C   0  0  0  0  0  0  0  0  0  0  0  0
    2.7211   -4.5545   -7.2451 Cl  0  0  0  0  0  0  0  0  0  0  0  0
    3.4603   -7.3577   -5.8154 Cl  0  0  0  0  0  0  0  0  0  0  0  0
   -0.0323   -2.7628   -6.6550 C   0  0  0  0  0  0  0  0  0  0  0  0
   -0.2994   -3.9554   -7.8943 S   0  0  0  0  0  0  0  0  0  0  0  0
    0.9561   -1.8721   -3.1535 C   0  0  0  0  0  0  0  0  0  0  0  0
    0.8146   -0.6435   -2.5676 C   0  0  0  0  0  0  0  0  0  0  0  0
    0.1333    0.5486   -3.6522 S   0  0  0  0  0  0  0  0  0  0  0  0
    1.1989   -0.2165   -1.2780 C   0  0  0  0  0  0  0  0  0  0  0  0
    2.0196   -1.1777   -0.0916 S   0  0  0  0  0  0  0  0  0  0  0  0
    2.2236    0.1570    1.0131 C   0  0  0  0  0  0  0  0  0  0  0  0
    1.6163    1.3046    0.4830 C   0  0  0  0  0  0  0  0  0  0  0  0
    1.0582    1.0849   -0.8070 C   0  0  0  0  0  0  0  0  0  0  0  0
    0.4834    2.0752   -1.5199 N   0  0  0  0  0  0  0  0  0  0  0  0
    0.4507    3.2538   -0.9560 C   0  0  0  0  0  0  0  0  0  0  0  0
   -0.0652    4.2878   -1.6093 O   0  0  0  0  0  0  0  0  0  0  0  0
   -0.4126    4.0544   -2.9784 C   0  0  0  0  0  0  0  0  0  0  0  0
   -0.8212    5.3738   -3.6033 C   0  0  0  0  0  0  0  0  0  0  0  0
    0.9959    3.4851    0.3637 C   0  0  0  0  0  0  0  0  0  0  0  0
    0.9193    4.8550    0.9604 C   0  0  0  0  0  0  0  0  0  0  0  0
    1.9980    5.0854    1.8983 N   0  0  0  0  0  0  0  0  0  0  0  0
    1.5580    2.5309    1.0485 N   0  0  0  0  0  0  0  0  0  0  0  0
    2.9860   -0.0126    2.1852 C   0  0  0  0  0  0  0  0  0  0  0  0
    3.2337    0.9834    3.0802 C   0  0  0  0  0  0  0  0  0  0  0  0
    4.0168    0.8200    4.2415 C   0  0  0  0  0  0  0  0  0  0  0  0
    4.0354    2.0639    5.4532 S   0  0  0  0  0  0  0  0  0  0  0  0
    4.9452    1.1217    6.5916 C   0  0  0  0  0  0  0  0  0  0  0  0
    5.3338   -0.0703    5.9941 C   0  0  0  0  0  0  0  0  0  0  0  0
    4.7997   -0.2521    4.6769 C   0  0  0  0  0  0  0  0  0  0  0  0
    5.0585   -1.3755    3.9750 N   0  0  0  0  0  0  0  0  0  0  0  0
    5.8099   -2.2720    4.5544 C   0  0  0  0  0  0  0  0  0  0  0  0
    6.1445   -3.3918    3.9039 O   0  0  0  0  0  0  0  0  0  0  0  0
    5.6185   -3.5516    2.5883 C   0  0  0  0  0  0  0  0  0  0  0  0
    4.1719   -4.0275    2.6072 C   0  0  0  0  0  0  0  0  0  0  0  0
    6.3193   -2.1124    5.8961 C   0  0  0  0  0  0  0  0  0  0  0  0
    7.1660   -3.1878    6.5058 C   0  0  0  0  0  0  0  0  0  0  0  0
    7.0945   -3.1607    7.9538 N   0  0  0  0  0  0  0  0  0  0  0  0
    6.0788   -1.0359    6.5840 N   0  0  0  0  0  0  0  0  0  0  0  0
    5.1341    1.5355    7.9646 C   0  0  0  0  0  0  0  0  0  0  0  0
    4.1478    2.0318    8.7305 C   0  0  0  0  0  0  0  0  0  0  0  0
    2.7986    2.0543    8.1926 C   0  0  0  0  0  0  0  0  0  0  0  0
    2.1953    0.9788    7.6212 C   0  0  0  0  0  0  0  0  0  0  0  0
    1.1603    1.3223    6.7164 C   0  0  0  0  0  0  0  0  0  0  0  0
    0.5586    0.4951    5.7541 C   0  0  0  0  0  0  0  0  0  0  0  0
    0.6623   -0.9553    5.7740 C   0  0  0  0  0  0  0  0  0  0  0  0
    2.1705   -1.8169    5.8532 S   0  0  0  0  0  0  0  0  0  0  0  0
    1.3847   -3.3592    5.8360 C   0  0  0  0  0  0  0  0  0  0  0  0
    2.1369   -4.6450    5.8961 C   0  0  0  0  0  0  0  0  0  0  0  0
    3.5308   -4.4848    6.4874 C   0  0  0  0  0  0  0  0  0  0  0  0
    0.0334   -3.1972    5.7592 C   0  0  0  0  0  0  0  0  0  0  0  0
   -1.0776   -4.5043    5.7212 Cl  0  0  0  0  0  0  0  0  0  0  0  0
   -0.3798   -1.8408    5.7224 C   0  0  0  0  0  0  0  0  0  0  0  0
   -2.0317   -1.3866    5.7069 Cl  0  0  0  0  0  0  0  0  0  0  0  0
   -0.1281    1.1352    4.7334 C   0  0  0  0  0  0  0  0  0  0  0  0
   -0.3768    2.5313    4.7105 C   0  0  0  0  0  0  0  0  0  0  0  0
    0.0955    3.3356    5.7663 C   0  0  0  0  0  0  0  0  0  0  0  0
   -0.1891    4.7552    5.8510 C   0  0  0  0  0  0  0  0  0  0  0  0
    0.0205    5.8330    4.5040 S   0  0  0  0  0  0  0  0  0  0  0  0
   -0.4665    7.2178    5.4191 C   0  0  0  0  0  0  0  0  0  0  0  0
   -0.4502    8.5841    4.8275 C   0  0  0  0  0  0  0  0  0  0  0  0
    0.9225    9.2380    5.0056 C   0  0  0  0  0  0  0  0  0  0  0  0
   -0.7672    6.8513    6.6965 C   0  0  0  0  0  0  0  0  0  0  0  0
   -0.6133    5.4610    6.9447 C   0  0  0  0  0  0  0  0  0  0  0  0
   -1.0090    4.7538    8.4545 Cl  0  0  0  0  0  0  0  0  0  0  0  0
   -1.2994    7.9497    7.9028 Cl  0  0  0  0  0  0  0  0  0  0  0  0
    0.9196    2.7168    6.7012 C   0  0  0  0  0  0  0  0  0  0  0  0
    1.9527    3.5466    7.8355 S   0  0  0  0  0  0  0  0  0  0  0  0
   -1.0533    2.9232    3.5334 C   0  0  0  0  0  0  0  0  0  0  0  0
   -1.2543    1.8925    2.6554 C   0  0  0  0  0  0  0  0  0  0  0  0
   -0.6798    0.3617    3.2801 S   0  0  0  0  0  0  0  0  0  0  0  0
   -1.8219    1.9454    1.3625 C   0  0  0  0  0  0  0  0  0  0  0  0
   -1.9219    0.5144    0.3851 S   0  0  0  0  0  0  0  0  0  0  0  0
   -2.6288    1.3500   -0.9598 C   0  0  0  0  0  0  0  0  0  0  0  0
   -2.8007    2.7023   -0.6364 C   0  0  0  0  0  0  0  0  0  0  0  0
   -2.3363    3.0396    0.6700 C   0  0  0  0  0  0  0  0  0  0  0  0
   -2.4298    4.3064    1.1406 N   0  0  0  0  0  0  0  0  0  0  0  0
   -2.9873    5.1787    0.3435 C   0  0  0  0  0  0  0  0  0  0  0  0
   -3.1365    6.4512    0.7216 O   0  0  0  0  0  0  0  0  0  0  0  0
   -2.6610    6.8211    2.0120 C   0  0  0  0  0  0  0  0  0  0  0  0
   -3.5719    6.3418    3.1340 C   0  0  0  0  0  0  0  0  0  0  0  0
   -3.4690    4.8391   -0.9718 C   0  0  0  0  0  0  0  0  0  0  0  0
   -4.1497    5.8841   -1.8023 C   0  0  0  0  0  0  0  0  0  0  0  0
   -4.1500    5.5287   -3.2088 N   0  0  0  0  0  0  0  0  0  0  0  0
   -3.3650    3.6274   -1.4385 N   0  0  0  0  0  0  0  0  0  0  0  0
   -2.9392    0.7026   -2.1675 C   0  0  0  0  0  0  0  0  0  0  0  0
   -2.7470   -0.6299   -2.3660 C   0  0  0  0  0  0  0  0  0  0  0  0
   -2.9857   -1.3282   -3.5588 C   0  0  0  0  0  0  0  0  0  0  0  0
   -3.5683   -0.6063   -5.0253 S   0  0  0  0  0  0  0  0  0  0  0  0
   -3.5049   -2.0864   -5.9204 C   0  0  0  0  0  0  0  0  0  0  0  0
   -3.0487   -3.1197   -5.1001 C   0  0  0  0  0  0  0  0  0  0  0  0
   -2.7798   -2.6960   -3.7651 C   0  0  0  0  0  0  0  0  0  0  0  0
   -2.4216   -3.5707   -2.8055 N   0  0  0  0  0  0  0  0  0  0  0  0
   -2.3014   -4.8217   -3.1676 C   0  0  0  0  0  0  0  0  0  0  0  0
   -2.0488   -5.7579   -2.2515 O   0  0  0  0  0  0  0  0  0  0  0  0
   -2.0118   -5.3378   -0.8886 C   0  0  0  0  0  0  0  0  0  0  0  0
   -0.7179   -4.6310   -0.5113 C   0  0  0  0  0  0  0  0  0  0  0  0
   -2.4797   -5.2462   -4.5354 C   0  0  0  0  0  0  0  0  0  0  0  0
   -2.2317   -6.6681   -4.9547 C   0  0  0  0  0  0  0  0  0  0  0  0
   -0.9339   -6.7544   -5.6165 N   0  0  0  0  0  0  0  0  0  0  0  0
   -2.8548   -4.4099   -5.4584 N   0  0  0  0  0  0  0  0  0  0  0  0
   -3.9234   -2.1103   -7.2862 C   0  0  0  0  0  0  0  0  0  0  0  0
   -3.9840   -3.2155   -8.0319 C   0  0  0  0  0  0  0  0  0  0  0  0
   -1.2313   -3.0557   -9.9479 H   0  0  0  0  0  0  0  0  0  0  0  0
   -1.3018   -0.6482   -8.9508 H   0  0  0  0  0  0  0  0  0  0  0  0
   -3.3854    3.6571   -8.7903 H   0  0  0  0  0  0  0  0  0  0  0  0
   -2.2930    4.9524   -8.2655 H   0  0  0  0  0  0  0  0  0  0  0  0
   -4.5222    5.1558   -7.1735 H   0  0  0  0  0  0  0  0  0  0  0  0
   -3.2747    4.8318   -5.9650 H   0  0  0  0  0  0  0  0  0  0  0  0
   -4.3459    3.5325   -6.4965 H   0  0  0  0  0  0  0  0  0  0  0  0
    2.6776   -8.2204   -3.3110 H   0  0  0  0  0  0  0  0  0  0  0  0
    2.2411   -7.1534   -1.9666 H   0  0  0  0  0  0  0  0  0  0  0  0
    0.6944   -9.0812   -2.0455 H   0  0  0  0  0  0  0  0  0  0  0  0
   -0.1826   -7.5884   -2.4199 H   0  0  0  0  0  0  0  0  0  0  0  0
    0.2688   -8.6927   -3.7174 H   0  0  0  0  0  0  0  0  0  0  0  0
    1.3757   -2.7097   -2.6271 H   0  0  0  0  0  0  0  0  0  0  0  0
   -1.2244    3.3212   -3.0243 H   0  0  0  0  0  0  0  0  0  0  0  0
    0.4585    3.6217   -3.4830 H   0  0  0  0  0  0  0  0  0  0  0  0
   -0.8928    5.2514   -4.6791 H   0  0  0  0  0  0  0  0  0  0  0  0
   -0.0750    6.1334   -3.3852 H   0  0  0  0  0  0  0  0  0  0  0  0
   -1.7875    5.6943   -3.2266 H   0  0  0  0  0  0  0  0  0  0  0  0
    0.9809    5.5949    0.1558 H   0  0  0  0  0  0  0  0  0  0  0  0
   -0.0882    4.9408    1.4105 H   0  0  0  0  0  0  0  0  0  0  0  0
    1.8230    5.9211    2.4433 H   0  0  0  0  0  0  0  0  0  0  0  0
    2.0674    4.2977    2.5327 H   0  0  0  0  0  0  0  0  0  0  0  0
    3.4134   -0.9891    2.3574 H   0  0  0  0  0  0  0  0  0  0  0  0
    2.7861    1.9537    2.9189 H   0  0  0  0  0  0  0  0  0  0  0  0
    5.6968   -2.5999    2.0535 H   0  0  0  0  0  0  0  0  0  0  0  0
    6.2663   -4.2962    2.1205 H   0  0  0  0  0  0  0  0  0  0  0  0
    4.1010   -4.9863    3.1151 H   0  0  0  0  0  0  0  0  0  0  0  0
    3.5484   -3.3037    3.1260 H   0  0  0  0  0  0  0  0  0  0  0  0
    3.8108   -4.1347    1.5884 H   0  0  0  0  0  0  0  0  0  0  0  0
    8.1888   -3.0447    6.1103 H   0  0  0  0  0  0  0  0  0  0  0  0
    6.8204   -4.1634    6.1471 H   0  0  0  0  0  0  0  0  0  0  0  0
    7.9236   -3.5731    8.3646 H   0  0  0  0  0  0  0  0  0  0  0  0
    7.0205   -2.1968    8.2622 H   0  0  0  0  0  0  0  0  0  0  0  0
    6.1269    1.3987    8.3711 H   0  0  0  0  0  0  0  0  0  0  0  0
    4.3409    2.4127    9.7219 H   0  0  0  0  0  0  0  0  0  0  0  0
    2.5630   -0.0224    7.7540 H   0  0  0  0  0  0  0  0  0  0  0  0
    2.2109   -5.0582    4.8845 H   0  0  0  0  0  0  0  0  0  0  0  0
    1.5520   -5.3518    6.4907 H   0  0  0  0  0  0  0  0  0  0  0  0
    4.1223   -3.8023    5.8836 H   0  0  0  0  0  0  0  0  0  0  0  0
    3.4804   -4.0846    7.4966 H   0  0  0  0  0  0  0  0  0  0  0  0
    4.0388   -5.4447    6.5222 H   0  0  0  0  0  0  0  0  0  0  0  0
   -1.2091    9.1911    5.3251 H   0  0  0  0  0  0  0  0  0  0  0  0
   -0.6899    8.5232    3.7646 H   0  0  0  0  0  0  0  0  0  0  0  0
    1.1667    9.3174    6.0617 H   0  0  0  0  0  0  0  0  0  0  0  0
    1.6912    8.6451    4.5155 H   0  0  0  0  0  0  0  0  0  0  0  0
    0.9206   10.2345    4.5723 H   0  0  0  0  0  0  0  0  0  0  0  0
   -1.3713    3.9233    3.3109 H   0  0  0  0  0  0  0  0  0  0  0  0
   -1.6498    6.4246    2.1519 H   0  0  0  0  0  0  0  0  0  0  0  0
   -2.6282    7.9130    1.9816 H   0  0  0  0  0  0  0  0  0  0  0  0
   -3.6015    5.2556    3.1530 H   0  0  0  0  0  0  0  0  0  0  0  0
   -3.1935    6.7020    4.0869 H   0  0  0  0  0  0  0  0  0  0  0  0
   -4.5806    6.7199    2.9871 H   0  0  0  0  0  0  0  0  0  0  0  0
   -3.6305    6.8403   -1.6710 H   0  0  0  0  0  0  0  0  0  0  0  0
   -5.1630    6.0121   -1.3782 H   0  0  0  0  0  0  0  0  0  0  0  0
   -4.8955    6.0060   -3.7017 H   0  0  0  0  0  0  0  0  0  0  0  0
   -4.2891    4.5269   -3.2951 H   0  0  0  0  0  0  0  0  0  0  0  0
   -3.3331    1.3253   -2.9593 H   0  0  0  0  0  0  0  0  0  0  0  0
   -2.3597   -1.2394   -1.5584 H   0  0  0  0  0  0  0  0  0  0  0  0
   -2.1291   -6.2625   -0.3180 H   0  0  0  0  0  0  0  0  0  0  0  0
   -2.8635   -4.6757   -0.7012 H   0  0  0  0  0  0  0  0  0  0  0  0
    0.1361   -5.2745   -0.7032 H   0  0  0  0  0  0  0  0  0  0  0  0
   -0.6103   -3.7203   -1.0928 H   0  0  0  0  0  0  0  0  0  0  0  0
   -0.7445   -4.3764    0.5444 H   0  0  0  0  0  0  0  0  0  0  0  0
   -2.2085   -7.3111   -4.0723 H   0  0  0  0  0  0  0  0  0  0  0  0
   -3.0676   -6.9761   -5.6045 H   0  0  0  0  0  0  0  0  0  0  0  0
   -0.9044   -6.0995   -6.3926 H   0  0  0  0  0  0  0  0  0  0  0  0
   -0.8015   -7.6856   -5.9969 H   0  0  0  0  0  0  0  0  0  0  0  0
   -4.2011   -1.1477   -7.6969 H   0  0  0  0  0  0  0  0  0  0  0  0
   -3.7089   -4.1719   -7.6244 H   0  0  0  0  0  0  0  0  0  0  0  0
   -4.3056   -3.1782   -9.0577 H   0  0  0  0  0  0  0  0  0  0  0  0
  1  2  2  0  0  0  0
  2  3  1  0  0  0  0
  3  4  2  0  0  0  0
  4  5  1  0  0  0  0
  5  6  1  0  0  0  0
  6  7  1  0  0  0  0
  7  8  1  0  0  0  0
  8  9  1  0  0  0  0
  7 10  2  0  0  0  0
 10 11  1  0  0  0  0
 10 12  1  0  0  0  0
 12 13  1  0  0  0  0
  4 14  1  0  0  0  0
 14 15  2  0  0  0  0
 15 16  1  0  0  0  0
 16 17  1  0  0  0  0
 17 18  1  0  0  0  0
 18 19  1  0  0  0  0
 19 20  1  0  0  0  0
 20 21  1  0  0  0  0
 19 22  2  0  0  0  0
 22 23  1  0  0  0  0
 23 24  1  0  0  0  0
 22 25  1  0  0  0  0
 16 26  2  0  0  0  0
 26 27  1  0  0  0  0
 15 28  1  0  0  0  0
 28 29  2  0  0  0  0
 29 30  1  0  0  0  0
 29 31  1  0  0  0  0
 31 32  1  0  0  0  0
 32 33  1  0  0  0  0
 33 34  2  0  0  0  0
 34 35  1  0  0  0  0
 35 36  1  0  0  0  0
 36 37  2  0  0  0  0
 37 38  1  0  0  0  0
 38 39  1  0  0  0  0
 39 40  1  0  0  0  0
 37 41  1  0  0  0  0
 41 42  1  0  0  0  0
 42 43  1  0  0  0  0
 41 44  2  0  0  0  0
 33 45  1  0  0  0  0
 45 46  2  0  0  0  0
 46 47  1  0  0  0  0
 47 48  1  0  0  0  0
 48 49  1  0  0  0  0
 49 50  2  0  0  0  0
 50 51  1  0  0  0  0
 51 52  1  0  0  0  0
 52 53  2  0  0  0  0
 53 54  1  0  0  0  0
 54 55  1  0  0  0  0
 55 56  1  0  0  0  0
 53 57  1  0  0  0  0
 57 58  1  0  0  0  0
 58 59  1  0  0  0  0
 57 60  2  0  0  0  0
 49 61  1  0  0  0  0
 61 62  2  0  0  0  0
 62 63  1  0  0  0  0
 63 64  2  0  0  0  0
 64 65  1  0  0  0  0
 65 66  2  0  0  0  0
 66 67  1  0  0  0  0
 67 68  1  0  0  0  0
 68 69  1  0  0  0  0
 69 70  1  0  0  0  0
 70 71  1  0  0  0  0
 69 72  2  0  0  0  0
 72 73  1  0  0  0  0
 72 74  1  0  0  0  0
 74 75  1  0  0  0  0
 66 76  1  0  0  0  0
 76 77  2  0  0  0  0
 77 78  1  0  0  0  0
 78 79  1  0  0  0  0
 79 80  1  0  0  0  0
 80 81  1  0  0  0  0
 81 82  1  0  0  0  0
 82 83  1  0  0  0  0
 81 84  2  0  0  0  0
 84 85  1  0  0  0  0
 85 86  1  0  0  0  0
 84 87  1  0  0  0  0
 78 88  2  0  0  0  0
 88 89  1  0  0  0  0
 77 90  1  0  0  0  0
 90 91  2  0  0  0  0
 91 92  1  0  0  0  0
 91 93  1  0  0  0  0
 93 94  1  0  0  0  0
 94 95  1  0  0  0  0
 95 96  2  0  0  0  0
 96 97  1  0  0  0  0
 97 98  1  0  0  0  0
 98 99  2  0  0  0  0
 99100  1  0  0  0  0
100101  1  0  0  0  0
101102  1  0  0  0  0
 99103  1  0  0  0  0
103104  1  0  0  0  0
104105  1  0  0  0  0
103106  2  0  0  0  0
 95107  1  0  0  0  0
107108  2  0  0  0  0
108109  1  0  0  0  0
109110  1  0  0  0  0
110111  1  0  0  0  0
111112  2  0  0  0  0
112113  1  0  0  0  0
113114  1  0  0  0  0
114115  2  0  0  0  0
115116  1  0  0  0  0
116117  1  0  0  0  0
117118  1  0  0  0  0
115119  1  0  0  0  0
119120  1  0  0  0  0
120121  1  0  0  0  0
119122  2  0  0  0  0
111123  1  0  0  0  0
123124  2  0  0  0  0
 27  1  1  0  0  0  0
 35 31  2  0  0  0  0
 51 47  2  0  0  0  0
 89 63  1  0  0  0  0
 97 93  2  0  0  0  0
113109  2  0  0  0  0
 26  3  1  0  0  0  0
 44 34  1  0  0  0  0
 60 50  1  0  0  0  0
 88 65  1  0  0  0  0
106 96  1  0  0  0  0
122112  1  0  0  0  0
 12  5  2  0  0  0  0
 30 14  1  0  0  0  0
 74 67  2  0  0  0  0
 92 76  1  0  0  0  0
 23 17  2  0  0  0  0
 85 79  2  0  0  0  0
  1125  1  0  0  0  0
  2126  1  0  0  0  0
  8127  1  0  0  0  0
  8128  1  0  0  0  0
  9129  1  0  0  0  0
  9130  1  0  0  0  0
  9131  1  0  0  0  0
 20132  1  0  0  0  0
 20133  1  0  0  0  0
 21134  1  0  0  0  0
 21135  1  0  0  0  0
 21136  1  0  0  0  0
 28137  1  0  0  0  0
 39138  1  0  0  0  0
 39139  1  0  0  0  0
 40140  1  0  0  0  0
 40141  1  0  0  0  0
 40142  1  0  0  0  0
 42143  1  0  0  0  0
 42144  1  0  0  0  0
 43145  1  0  0  0  0
 43146  1  0  0  0  0
 45147  1  0  0  0  0
 46148  1  0  0  0  0
 55149  1  0  0  0  0
 55150  1  0  0  0  0
 56151  1  0  0  0  0
 56152  1  0  0  0  0
 56153  1  0  0  0  0
 58154  1  0  0  0  0
 58155  1  0  0  0  0
 59156  1  0  0  0  0
 59157  1  0  0  0  0
 61158  1  0  0  0  0
 62159  1  0  0  0  0
 64160  1  0  0  0  0
 70161  1  0  0  0  0
 70162  1  0  0  0  0
 71163  1  0  0  0  0
 71164  1  0  0  0  0
 71165  1  0  0  0  0
 82166  1  0  0  0  0
 82167  1  0  0  0  0
 83168  1  0  0  0  0
 83169  1  0  0  0  0
 83170  1  0  0  0  0
 90171  1  0  0  0  0
101172  1  0  0  0  0
101173  1  0  0  0  0
102174  1  0  0  0  0
102175  1  0  0  0  0
102176  1  0  0  0  0
104177  1  0  0  0  0
104178  1  0  0  0  0
105179  1  0  0  0  0
105180  1  0  0  0  0
107181  1  0  0  0  0
108182  1  0  0  0  0
117183  1  0  0  0  0
117184  1  0  0  0  0
118185  1  0  0  0  0
118186  1  0  0  0  0
118187  1  0  0  0  0
120188  1  0  0  0  0
120189  1  0  0  0  0
121190  1  0  0  0  0
121191  1  0  0  0  0
123192  1  0  0  0  0
124193  1  0  0  0  0
124194  1  0  0  0  0
M  END
