143

C          7.37230       10.62040       12.85710
S          6.63930        9.08540       13.20100
C          5.58660        9.28240       11.84730
C          4.55400        8.64240       11.15390
C          4.19650        9.49290       10.09020
N          4.98810       10.61260       10.10510
C          4.87080       11.74890        9.23120
C          3.85500       12.76230        9.75650
C          5.82610       10.49850       11.18420
C          6.85510       11.25910       11.77370
C          3.16910        8.98460        9.28660
C          2.74400        7.74900        9.72590
S          3.60990        7.19990       11.15580
C          1.75460        6.91550        9.13430
S          1.48870        5.29290        9.75940
C          0.32060        4.99410        8.52570
C         -0.49910        3.98700        8.01810
C         -1.15030        4.53110        6.88800
N         -0.74560        5.82770        6.69780
C         -1.24650        6.73600        5.70160
C         -2.49020        7.47710        6.19020
C          0.14810        6.12180        7.69520
C          0.95900        7.20500        8.04440
C         -1.95560        3.61460        6.21350
C         -1.91440        2.37000        6.81420
S         -0.90700        2.32410        8.25670
C         -2.46700        1.16560        6.34050
S         -3.32000        1.02930        4.83020
C         -3.35780       -0.71690        4.88710
C         -2.77980       -1.15670        6.08150
C         -2.28400       -0.09900        6.89450
N         -1.65940       -0.33420        8.06790
C         -1.54530       -1.58710        8.41880
O         -0.92760       -1.92880        9.54980
C         -0.40380       -0.86950       10.34840
C         -1.48930       -0.15040       11.13620
C         -2.06150       -2.66670        7.60910
C         -1.92080       -4.09020        8.07990
N         -2.47800       -5.08700        7.19240
N         -2.65460       -2.44520        6.47140
C         -3.74040       -1.50830        3.79060
C         -4.29430       -1.03290        2.64330
C         -4.38260       -1.75620        1.43380
S         -3.53750       -3.29620        1.25030
C         -3.86270       -3.28450       -0.44260
C         -3.53220       -3.95600       -1.61490
C         -4.13550       -3.24230       -2.67730
N         -4.81870       -2.16290       -2.17770
C         -5.61550       -1.24500       -2.94640
C         -7.01120       -1.80450       -3.21770
C         -4.65090       -2.17010       -0.81640
C         -4.93630       -1.31230        0.24470
C         -3.79700       -3.72210       -3.94020
C         -2.91530       -4.78590       -3.85840
S         -2.55030       -5.25050       -2.19700
C         -2.23510       -5.38880       -4.93630
S         -0.98960       -6.57510       -4.69640
C         -0.50720       -6.58020       -6.36740
C         -1.33970       -5.71890       -7.09760
C         -2.31080       -5.05160       -6.29150
N         -3.17800       -4.16640       -6.83470
C         -3.08370       -3.97350       -8.12380
O         -3.90950       -3.11130       -8.72840
C         -4.87000       -2.47280       -7.89540
C         -5.76410       -1.61620       -8.77340
C         -2.12130       -4.65620       -8.94590
C         -2.06480       -4.38080      -10.41850
N         -1.53340       -5.51240      -11.15130
N         -1.27330       -5.49750       -8.42650
C          0.62650       -7.30630       -6.77490
C          1.19780       -7.19090       -8.00560
C          2.39330       -7.81520       -8.39950
S          3.28190       -8.94760       -7.42310
C          4.56930       -9.11330       -8.57360
C          4.32350       -8.30290       -9.68150
C          3.09240       -7.58490       -9.58820
N          2.68930       -6.74370      -10.56680
C          3.49630       -6.61680      -11.58520
O          3.17850       -5.79420      -12.59080
C          1.92390       -5.13060      -12.47640
C          1.77230       -4.19370      -13.66110
C          4.75230       -7.31890      -11.68090
C          5.64220       -7.06000      -12.85750
N          6.70740       -8.03540      -12.95350
N          5.14230       -8.13610      -10.74850
C          5.66330       -9.99060       -8.29500
C          6.64750      -10.26440       -9.15380
H          8.16080       10.96010       13.49860
H          4.56730       11.39130        8.24310
H          5.85560       12.21600        9.14290
H          3.78360       13.60800        9.07790
H          4.15700       13.12310       10.73690
H          2.87510       12.29930        9.84630
H          7.19610       12.21780       11.42720
H          2.75900        9.47760        8.42480
H         -0.45420        7.44990        5.45960
H         -1.48240        6.16090        4.80190
H         -3.27970        6.76800        6.42740
H         -2.84810        8.15670        5.42160
H         -2.25910        8.04910        7.08580
H          0.97950        8.15050        7.53510
H         -2.52560        3.80420        5.32190
H          0.12010       -0.15760        9.70300
H          0.30500       -1.36060       11.01890
H         -2.16920        0.35120       10.45340
H         -2.04770       -0.85860       11.74380
H         -1.03190        0.59260       11.78250
H         -0.85660       -4.30330        8.22960
H         -2.40360       -4.17980        9.05960
H         -3.46080       -4.88540        7.03520
H         -2.02480       -5.02300        6.28600
H         -3.49640       -2.55920        3.87750
H         -4.61870        0.00010        2.60560
H         -5.68670       -0.30700       -2.39030
H         -5.10120       -1.05200       -3.89290
H         -7.59230       -1.09610       -3.80180
H         -7.52910       -1.99480       -2.28060
H         -6.93870       -2.73890       -3.76910
H         -5.48980       -0.39340        0.17420
H         -4.11470       -3.32650       -4.88570
H         -4.34470       -1.86320       -7.14960
H         -5.44800       -3.23860       -7.36450
H         -6.50720       -1.11310       -8.16140
H         -6.26940       -2.23700       -9.50820
H         -5.17070       -0.87220       -9.29780
H         -3.07700       -4.16610      -10.77790
H         -1.47330       -3.45360      -10.54620
H         -1.19530       -5.22380      -12.06140
H         -0.76760       -5.92450      -10.62920
H          1.09160       -7.94000       -6.02980
H          0.74820       -6.53780       -8.73870
H          1.12900       -5.88580      -12.45790
H          1.89590       -4.58380      -11.52630
H          2.57990       -3.46660      -13.66840
H          0.82370       -3.66790      -13.59750
H          1.80500       -4.75650      -14.59010
H          5.03760       -7.10060      -13.77110
H          5.99780       -6.01630      -12.76000
H          7.46700       -7.68440      -13.52450
H          7.06040       -8.23950      -12.02500
H          5.64580      -10.44670       -7.31300
H          6.65900       -9.82990      -10.13710
H          7.44860      -10.93210       -8.88930
