
  xtb     02282223363D
 energy: -219.857843387075 gnorm: 0.000760226765 xtb: 6.4.1 (unknown)
134145  0     0  0            999 V2000
    5.4489    2.2656   -1.0456 C   0  0  0  0  0  0  0  0  0  0  0  0
    4.9668    2.0779    0.5875 S   0  0  0  0  0  0  0  0  0  0  0  0
    3.8611    3.4126    0.5246 C   0  0  0  0  0  0  0  0  0  0  0  0
    3.9074    3.9845   -0.7474 C   0  0  0  0  0  0  0  0  0  0  0  0
    4.7851    3.3005   -1.6520 C   0  0  0  0  0  0  0  0  0  0  0  0
    4.8835    3.6823   -2.9543 N   0  0  0  0  0  0  0  0  0  0  0  0
    4.1723    4.7162   -3.3012 C   0  0  0  0  0  0  0  0  0  0  0  0
    4.1973    5.1860   -4.5530 O   0  0  0  0  0  0  0  0  0  0  0  0
    4.8929    4.4169   -5.5295 C   0  0  0  0  0  0  0  0  0  0  0  0
    3.9575    3.4074   -6.1820 C   0  0  0  0  0  0  0  0  0  0  0  0
    3.3188    5.4354   -2.3803 C   0  0  0  0  0  0  0  0  0  0  0  0
    2.5410    6.6336   -2.8559 C   0  0  0  0  0  0  0  0  0  0  0  0
    1.7213    7.2692   -1.8461 N   0  0  0  0  0  0  0  0  0  0  0  0
    3.1876    5.0586   -1.1423 N   0  0  0  0  0  0  0  0  0  0  0  0
    3.1141    3.9593    1.6031 C   0  0  0  0  0  0  0  0  0  0  0  0
    2.4970    3.3800    2.6665 C   0  0  0  0  0  0  0  0  0  0  0  0
    2.2181    2.0280    2.9628 C   0  0  0  0  0  0  0  0  0  0  0  0
    1.2947    1.6028    3.9438 C   0  0  0  0  0  0  0  0  0  0  0  0
    0.9667    0.2159    3.8486 C   0  0  0  0  0  0  0  0  0  0  0  0
    0.1019   -0.3586    4.7999 C   0  0  0  0  0  0  0  0  0  0  0  0
   -0.4627    0.4279    5.7632 C   0  0  0  0  0  0  0  0  0  0  0  0
   -0.1790    1.8040    5.8281 C   0  0  0  0  0  0  0  0  0  0  0  0
    0.6900    2.3840    4.9469 C   0  0  0  0  0  0  0  0  0  0  0  0
    1.6508   -0.4297    2.8078 C   0  0  0  0  0  0  0  0  0  0  0  0
    2.7193    0.6710    2.0078 S   0  0  0  0  0  0  0  0  0  0  0  0
    1.6821   -1.7925    2.4183 C   0  0  0  0  0  0  0  0  0  0  0  0
    0.6851   -2.7110    2.4759 C   0  0  0  0  0  0  0  0  0  0  0  0
   -0.7068   -2.4950    2.6358 C   0  0  0  0  0  0  0  0  0  0  0  0
   -1.6675   -3.8141    3.2391 S   0  0  0  0  0  0  0  0  0  0  0  0
   -3.1846   -3.0173    2.9520 C   0  0  0  0  0  0  0  0  0  0  0  0
   -2.9323   -1.7517    2.4133 C   0  0  0  0  0  0  0  0  0  0  0  0
   -1.5447   -1.4427    2.2524 C   0  0  0  0  0  0  0  0  0  0  0  0
   -1.1591   -0.2488    1.7419 N   0  0  0  0  0  0  0  0  0  0  0  0
   -2.1164    0.5651    1.3794 C   0  0  0  0  0  0  0  0  0  0  0  0
   -1.8586    1.7846    0.8898 O   0  0  0  0  0  0  0  0  0  0  0  0
   -0.5201    2.2633    0.9264 C   0  0  0  0  0  0  0  0  0  0  0  0
    0.3232    1.7405   -0.2239 C   0  0  0  0  0  0  0  0  0  0  0  0
   -3.5118    0.2450    1.5146 C   0  0  0  0  0  0  0  0  0  0  0  0
   -4.5629    1.1869    1.0085 C   0  0  0  0  0  0  0  0  0  0  0  0
   -4.4809    1.2749   -0.4444 N   0  0  0  0  0  0  0  0  0  0  0  0
   -3.8917   -0.8755    2.0543 N   0  0  0  0  0  0  0  0  0  0  0  0
   -4.3903   -3.6522    3.3405 C   0  0  0  0  0  0  0  0  0  0  0  0
   -5.6286   -3.6027    2.7644 C   0  0  0  0  0  0  0  0  0  0  0  0
   -6.0064   -3.1300    1.4957 C   0  0  0  0  0  0  0  0  0  0  0  0
   -7.2881   -3.2671    0.9046 C   0  0  0  0  0  0  0  0  0  0  0  0
   -7.3101   -2.8651   -0.4596 C   0  0  0  0  0  0  0  0  0  0  0  0
   -8.5058   -2.9480   -1.1867 C   0  0  0  0  0  0  0  0  0  0  0  0
   -9.6417   -3.4131   -0.5749 C   0  0  0  0  0  0  0  0  0  0  0  0
   -9.6215   -3.8056    0.7703 C   0  0  0  0  0  0  0  0  0  0  0  0
   -8.4658   -3.7368    1.5048 C   0  0  0  0  0  0  0  0  0  0  0  0
   -6.0428   -2.4207   -0.9209 C   0  0  0  0  0  0  0  0  0  0  0  0
   -4.8799   -2.5166    0.3439 S   0  0  0  0  0  0  0  0  0  0  0  0
   -5.7823   -1.8061   -2.1526 C   0  0  0  0  0  0  0  0  0  0  0  0
   -4.6203   -1.2883   -2.6612 C   0  0  0  0  0  0  0  0  0  0  0  0
   -3.2749   -1.4387   -2.2755 C   0  0  0  0  0  0  0  0  0  0  0  0
   -2.1402   -0.2397   -2.8600 S   0  0  0  0  0  0  0  0  0  0  0  0
   -0.7391   -1.0482   -2.2293 C   0  0  0  0  0  0  0  0  0  0  0  0
   -1.1474   -2.2183   -1.5641 C   0  0  0  0  0  0  0  0  0  0  0  0
   -2.5556   -2.4483   -1.6212 C   0  0  0  0  0  0  0  0  0  0  0  0
   -3.0713   -3.6170   -1.1866 N   0  0  0  0  0  0  0  0  0  0  0  0
   -2.2385   -4.4883   -0.6760 C   0  0  0  0  0  0  0  0  0  0  0  0
   -2.6709   -5.6820   -0.2546 O   0  0  0  0  0  0  0  0  0  0  0  0
   -4.0575   -5.9969   -0.3822 C   0  0  0  0  0  0  0  0  0  0  0  0
   -4.5657   -6.5636    0.9336 C   0  0  0  0  0  0  0  0  0  0  0  0
   -0.8276   -4.2414   -0.5816 C   0  0  0  0  0  0  0  0  0  0  0  0
    0.1130   -5.2972   -0.0761 C   0  0  0  0  0  0  0  0  0  0  0  0
   -0.1763   -5.6724    1.3004 N   0  0  0  0  0  0  0  0  0  0  0  0
   -0.3144   -3.1277   -1.0257 N   0  0  0  0  0  0  0  0  0  0  0  0
    0.5567   -0.5823   -2.4988 C   0  0  0  0  0  0  0  0  0  0  0  0
    1.6839   -1.1196   -1.9427 C   0  0  0  0  0  0  0  0  0  0  0  0
    2.9980   -0.7731   -2.2853 C   0  0  0  0  0  0  0  0  0  0  0  0
    4.1829   -1.2848   -1.7228 C   0  0  0  0  0  0  0  0  0  0  0  0
    5.3667   -0.8147   -2.3713 C   0  0  0  0  0  0  0  0  0  0  0  0
    6.6168   -1.3128   -1.9430 C   0  0  0  0  0  0  0  0  0  0  0  0
    6.6773   -2.1771   -0.8875 C   0  0  0  0  0  0  0  0  0  0  0  0
    5.5108   -2.5994   -0.2234 C   0  0  0  0  0  0  0  0  0  0  0  0
    4.2803   -2.1768   -0.6410 C   0  0  0  0  0  0  0  0  0  0  0  0
    5.0935    0.0764   -3.4175 C   0  0  0  0  0  0  0  0  0  0  0  0
    3.3847    0.3090   -3.5864 S   0  0  0  0  0  0  0  0  0  0  0  0
    5.9463    0.7916   -4.3190 C   0  0  0  0  0  0  0  0  0  0  0  0
    7.2344    1.1009   -4.1590 C   0  0  0  0  0  0  0  0  0  0  0  0
    6.1874    1.6135   -1.4600 H   0  0  0  0  0  0  0  0  0  0  0  0
    5.2525    5.1425   -6.2634 H   0  0  0  0  0  0  0  0  0  0  0  0
    5.7369    3.9102   -5.0529 H   0  0  0  0  0  0  0  0  0  0  0  0
    3.5874    2.7073   -5.4363 H   0  0  0  0  0  0  0  0  0  0  0  0
    3.1095    3.9192   -6.6310 H   0  0  0  0  0  0  0  0  0  0  0  0
    4.4881    2.8595   -6.9558 H   0  0  0  0  0  0  0  0  0  0  0  0
    1.8978    6.3230   -3.6869 H   0  0  0  0  0  0  0  0  0  0  0  0
    3.2451    7.3709   -3.2567 H   0  0  0  0  0  0  0  0  0  0  0  0
    2.3124    7.5752   -1.0791 H   0  0  0  0  0  0  0  0  0  0  0  0
    1.0811    6.5834   -1.4570 H   0  0  0  0  0  0  0  0  0  0  0  0
    2.9746    5.0288    1.4944 H   0  0  0  0  0  0  0  0  0  0  0  0
    2.0233    4.0710    3.3524 H   0  0  0  0  0  0  0  0  0  0  0  0
   -0.0948   -1.4177    4.7683 H   0  0  0  0  0  0  0  0  0  0  0  0
   -1.1308   -0.0060    6.4924 H   0  0  0  0  0  0  0  0  0  0  0  0
   -0.6433    2.4010    6.5991 H   0  0  0  0  0  0  0  0  0  0  0  0
    0.9250    3.4343    5.0297 H   0  0  0  0  0  0  0  0  0  0  0  0
    2.6418   -2.1279    2.0422 H   0  0  0  0  0  0  0  0  0  0  0  0
    0.9425   -3.7532    2.3295 H   0  0  0  0  0  0  0  0  0  0  0  0
   -0.0784    1.9817    1.8839 H   0  0  0  0  0  0  0  0  0  0  0  0
   -0.6165    3.3512    0.8718 H   0  0  0  0  0  0  0  0  0  0  0  0
   -0.1653    1.9478   -1.1734 H   0  0  0  0  0  0  0  0  0  0  0  0
    1.2938    2.2292   -0.2132 H   0  0  0  0  0  0  0  0  0  0  0  0
    0.4622    0.6680   -0.1222 H   0  0  0  0  0  0  0  0  0  0  0  0
   -4.4291    2.1610    1.5113 H   0  0  0  0  0  0  0  0  0  0  0  0
   -5.5418    0.7802    1.2738 H   0  0  0  0  0  0  0  0  0  0  0  0
   -5.1761    1.9285   -0.7887 H   0  0  0  0  0  0  0  0  0  0  0  0
   -3.5671    1.6276   -0.7118 H   0  0  0  0  0  0  0  0  0  0  0  0
   -4.2842   -4.3107    4.1954 H   0  0  0  0  0  0  0  0  0  0  0  0
   -6.4199   -4.1015    3.3107 H   0  0  0  0  0  0  0  0  0  0  0  0
   -8.5292   -2.6523   -2.2247 H   0  0  0  0  0  0  0  0  0  0  0  0
  -10.5650   -3.4805   -1.1309 H   0  0  0  0  0  0  0  0  0  0  0  0
  -10.5310   -4.1651    1.2286 H   0  0  0  0  0  0  0  0  0  0  0  0
   -8.4623   -4.0369    2.5418 H   0  0  0  0  0  0  0  0  0  0  0  0
   -6.6653   -1.6302   -2.7552 H   0  0  0  0  0  0  0  0  0  0  0  0
   -4.7444   -0.6268   -3.5114 H   0  0  0  0  0  0  0  0  0  0  0  0
   -4.6060   -5.0961   -0.6631 H   0  0  0  0  0  0  0  0  0  0  0  0
   -4.1500   -6.7382   -1.1847 H   0  0  0  0  0  0  0  0  0  0  0  0
   -4.4327   -5.8352    1.7297 H   0  0  0  0  0  0  0  0  0  0  0  0
   -5.6230   -6.7959    0.8435 H   0  0  0  0  0  0  0  0  0  0  0  0
   -4.0233   -7.4700    1.1917 H   0  0  0  0  0  0  0  0  0  0  0  0
    0.0452   -6.1508   -0.7753 H   0  0  0  0  0  0  0  0  0  0  0  0
    1.1285   -4.8944   -0.1234 H   0  0  0  0  0  0  0  0  0  0  0  0
   -1.1342   -6.0014    1.3665 H   0  0  0  0  0  0  0  0  0  0  0  0
    0.4312   -6.4348    1.5828 H   0  0  0  0  0  0  0  0  0  0  0  0
    0.6458    0.2411   -3.1966 H   0  0  0  0  0  0  0  0  0  0  0  0
    1.5548   -1.8984   -1.2056 H   0  0  0  0  0  0  0  0  0  0  0  0
    7.5164   -1.0272   -2.4627 H   0  0  0  0  0  0  0  0  0  0  0  0
    7.6338   -2.5545   -0.5567 H   0  0  0  0  0  0  0  0  0  0  0  0
    5.5986   -3.2791    0.6112 H   0  0  0  0  0  0  0  0  0  0  0  0
    3.3798   -2.5213   -0.1571 H   0  0  0  0  0  0  0  0  0  0  0  0
    5.4449    1.1353   -5.2144 H   0  0  0  0  0  0  0  0  0  0  0  0
    7.7649    1.6447   -4.9211 H   0  0  0  0  0  0  0  0  0  0  0  0
    7.7981    0.8542   -3.2779 H   0  0  0  0  0  0  0  0  0  0  0  0
  1  2  1  0  0  0  0
  2  3  1  0  0  0  0
  3  4  2  0  0  0  0
  4  5  1  0  0  0  0
  5  6  1  0  0  0  0
  6  7  2  0  0  0  0
  7  8  1  0  0  0  0
  8  9  1  0  0  0  0
  9 10  1  0  0  0  0
  7 11  1  0  0  0  0
 11 12  1  0  0  0  0
 12 13  1  0  0  0  0
 11 14  2  0  0  0  0
  3 15  1  0  0  0  0
 15 16  2  0  0  0  0
 16 17  1  0  0  0  0
 17 18  2  0  0  0  0
 18 19  1  0  0  0  0
 19 20  1  0  0  0  0
 20 21  2  0  0  0  0
 21 22  1  0  0  0  0
 22 23  2  0  0  0  0
 19 24  2  0  0  0  0
 24 25  1  0  0  0  0
 24 26  1  0  0  0  0
 26 27  2  0  0  0  0
 27 28  1  0  0  0  0
 28 29  1  0  0  0  0
 29 30  1  0  0  0  0
 30 31  2  0  0  0  0
 31 32  1  0  0  0  0
 32 33  1  0  0  0  0
 33 34  2  0  0  0  0
 34 35  1  0  0  0  0
 35 36  1  0  0  0  0
 36 37  1  0  0  0  0
 34 38  1  0  0  0  0
 38 39  1  0  0  0  0
 39 40  1  0  0  0  0
 38 41  2  0  0  0  0
 30 42  1  0  0  0  0
 42 43  2  0  0  0  0
 43 44  1  0  0  0  0
 44 45  2  0  0  0  0
 45 46  1  0  0  0  0
 46 47  1  0  0  0  0
 47 48  2  0  0  0  0
 48 49  1  0  0  0  0
 49 50  2  0  0  0  0
 46 51  2  0  0  0  0
 51 52  1  0  0  0  0
 51 53  1  0  0  0  0
 53 54  2  0  0  0  0
 54 55  1  0  0  0  0
 55 56  1  0  0  0  0
 56 57  1  0  0  0  0
 57 58  2  0  0  0  0
 58 59  1  0  0  0  0
 59 60  1  0  0  0  0
 60 61  2  0  0  0  0
 61 62  1  0  0  0  0
 62 63  1  0  0  0  0
 63 64  1  0  0  0  0
 61 65  1  0  0  0  0
 65 66  1  0  0  0  0
 66 67  1  0  0  0  0
 65 68  2  0  0  0  0
 57 69  1  0  0  0  0
 69 70  2  0  0  0  0
 70 71  1  0  0  0  0
 71 72  2  0  0  0  0
 72 73  1  0  0  0  0
 73 74  1  0  0  0  0
 74 75  2  0  0  0  0
 75 76  1  0  0  0  0
 76 77  2  0  0  0  0
 73 78  2  0  0  0  0
 78 79  1  0  0  0  0
 78 80  1  0  0  0  0
 80 81  2  0  0  0  0
  5  1  2  0  0  0  0
 25 17  1  0  0  0  0
 32 28  2  0  0  0  0
 52 44  1  0  0  0  0
 59 55  2  0  0  0  0
 79 71  1  0  0  0  0
 14  4  1  0  0  0  0
 23 18  1  0  0  0  0
 41 31  1  0  0  0  0
 50 45  1  0  0  0  0
 68 58  1  0  0  0  0
 77 72  1  0  0  0  0
  1 82  1  0  0  0  0
  9 83  1  0  0  0  0
  9 84  1  0  0  0  0
 10 85  1  0  0  0  0
 10 86  1  0  0  0  0
 10 87  1  0  0  0  0
 12 88  1  0  0  0  0
 12 89  1  0  0  0  0
 13 90  1  0  0  0  0
 13 91  1  0  0  0  0
 15 92  1  0  0  0  0
 16 93  1  0  0  0  0
 20 94  1  0  0  0  0
 21 95  1  0  0  0  0
 22 96  1  0  0  0  0
 23 97  1  0  0  0  0
 26 98  1  0  0  0  0
 27 99  1  0  0  0  0
 36100  1  0  0  0  0
 36101  1  0  0  0  0
 37102  1  0  0  0  0
 37103  1  0  0  0  0
 37104  1  0  0  0  0
 39105  1  0  0  0  0
 39106  1  0  0  0  0
 40107  1  0  0  0  0
 40108  1  0  0  0  0
 42109  1  0  0  0  0
 43110  1  0  0  0  0
 47111  1  0  0  0  0
 48112  1  0  0  0  0
 49113  1  0  0  0  0
 50114  1  0  0  0  0
 53115  1  0  0  0  0
 54116  1  0  0  0  0
 63117  1  0  0  0  0
 63118  1  0  0  0  0
 64119  1  0  0  0  0
 64120  1  0  0  0  0
 64121  1  0  0  0  0
 66122  1  0  0  0  0
 66123  1  0  0  0  0
 67124  1  0  0  0  0
 67125  1  0  0  0  0
 69126  1  0  0  0  0
 70127  1  0  0  0  0
 74128  1  0  0  0  0
 75129  1  0  0  0  0
 76130  1  0  0  0  0
 77131  1  0  0  0  0
 80132  1  0  0  0  0
 81133  1  0  0  0  0
 81134  1  0  0  0  0
M  END
