
  xtb     02282218533D
 energy: -248.217759159127 gnorm: 0.000245333570 xtb: 6.4.1 (unknown)
116127  0     0  0            999 V2000
    7.0063   -5.4518    5.3619 C   0  0  0  0  0  0  0  0  0  0  0  0
    5.4554   -6.0567    4.9789 S   0  0  0  0  0  0  0  0  0  0  0  0
    4.9005   -4.5113    4.3726 C   0  0  0  0  0  0  0  0  0  0  0  0
    5.9259   -3.5851    4.4906 C   0  0  0  0  0  0  0  0  0  0  0  0
    6.0686   -1.9065    4.0896 S   0  0  0  0  0  0  0  0  0  0  0  0
    7.7287   -1.9027    4.6538 C   0  0  0  0  0  0  0  0  0  0  0  0
    8.4504   -0.6277    4.5436 C   0  0  0  0  0  0  0  0  0  0  0  0
    7.9357    0.3761    4.1131 O   0  0  0  0  0  0  0  0  0  0  0  0
    9.7059   -0.7232    4.9758 O   0  0  0  0  0  0  0  0  0  0  0  0
   10.5093    0.4549    4.8890 C   0  0  0  0  0  0  0  0  0  0  0  0
   11.0844    0.6323    3.4913 C   0  0  0  0  0  0  0  0  0  0  0  0
    8.1339   -3.1178    5.1235 C   0  0  0  0  0  0  0  0  0  0  0  0
    7.1226   -4.1185    5.0486 C   0  0  0  0  0  0  0  0  0  0  0  0
    9.3482   -3.3737    5.6070 F   0  0  0  0  0  0  0  0  0  0  0  0
    3.6171   -4.2697    3.8367 C   0  0  0  0  0  0  0  0  0  0  0  0
    3.2512   -2.6536    3.3098 S   0  0  0  0  0  0  0  0  0  0  0  0
    1.6455   -3.0783    2.7625 C   0  0  0  0  0  0  0  0  0  0  0  0
    1.4301   -4.4284    3.0051 C   0  0  0  0  0  0  0  0  0  0  0  0
    0.0726   -5.4595    2.7060 S   0  0  0  0  0  0  0  0  0  0  0  0
    0.9420   -6.8129    3.3888 C   0  0  0  0  0  0  0  0  0  0  0  0
    0.2865   -8.1238    3.4478 C   0  0  0  0  0  0  0  0  0  0  0  0
    0.7870   -9.1340    3.8687 O   0  0  0  0  0  0  0  0  0  0  0  0
   -0.9627   -8.0239    2.9728 O   0  0  0  0  0  0  0  0  0  0  0  0
   -1.7425   -9.2187    2.9428 C   0  0  0  0  0  0  0  0  0  0  0  0
   -1.4753  -10.0222    1.6784 C   0  0  0  0  0  0  0  0  0  0  0  0
    2.1983   -6.4753    3.8125 C   0  0  0  0  0  0  0  0  0  0  0  0
    2.5209   -5.1079    3.6104 C   0  0  0  0  0  0  0  0  0  0  0  0
    3.0382   -7.3474    4.3658 F   0  0  0  0  0  0  0  0  0  0  0  0
    0.7873   -2.1607    2.1313 C   0  0  0  0  0  0  0  0  0  0  0  0
   -0.7191   -2.7160    1.4533 S   0  0  0  0  0  0  0  0  0  0  0  0
   -1.1171   -1.1458    0.7897 C   0  0  0  0  0  0  0  0  0  0  0  0
   -0.1128   -0.2432    1.1229 C   0  0  0  0  0  0  0  0  0  0  0  0
    0.0934    1.4424    0.7829 S   0  0  0  0  0  0  0  0  0  0  0  0
    1.5999    1.4410    1.6638 C   0  0  0  0  0  0  0  0  0  0  0  0
    2.3605    2.6962    1.7570 C   0  0  0  0  0  0  0  0  0  0  0  0
    1.9888    3.7371    1.2704 O   0  0  0  0  0  0  0  0  0  0  0  0
    3.4897    2.5253    2.4358 O   0  0  0  0  0  0  0  0  0  0  0  0
    4.3387    3.6608    2.6087 C   0  0  0  0  0  0  0  0  0  0  0  0
    5.3169    3.3526    3.7271 C   0  0  0  0  0  0  0  0  0  0  0  0
    1.9106    0.2115    2.1773 C   0  0  0  0  0  0  0  0  0  0  0  0
    0.9531   -0.7919    1.8799 C   0  0  0  0  0  0  0  0  0  0  0  0
    3.0046   -0.0080    2.9066 F   0  0  0  0  0  0  0  0  0  0  0  0
   -2.2534   -0.8830    0.0065 C   0  0  0  0  0  0  0  0  0  0  0  0
   -2.4344    0.7074   -0.6761 S   0  0  0  0  0  0  0  0  0  0  0  0
   -3.9074    0.2962   -1.5250 C   0  0  0  0  0  0  0  0  0  0  0  0
   -4.2307   -1.0260   -1.2511 C   0  0  0  0  0  0  0  0  0  0  0  0
   -5.5434   -2.0347   -1.7621 S   0  0  0  0  0  0  0  0  0  0  0  0
   -4.8962   -3.3625   -0.8298 C   0  0  0  0  0  0  0  0  0  0  0  0
   -5.6242   -4.6357   -0.8484 C   0  0  0  0  0  0  0  0  0  0  0  0
   -6.6456   -4.8110   -1.4671 O   0  0  0  0  0  0  0  0  0  0  0  0
   -5.0181   -5.5597   -0.1036 O   0  0  0  0  0  0  0  0  0  0  0  0
   -5.6339   -6.8461   -0.0475 C   0  0  0  0  0  0  0  0  0  0  0  0
   -4.9089   -7.6620    1.0062 C   0  0  0  0  0  0  0  0  0  0  0  0
   -3.7397   -3.0333   -0.1756 C   0  0  0  0  0  0  0  0  0  0  0  0
   -3.3201   -1.6980   -0.3937 C   0  0  0  0  0  0  0  0  0  0  0  0
   -3.0752   -3.8909    0.6002 F   0  0  0  0  0  0  0  0  0  0  0  0
   -4.5639    1.2005   -2.3816 C   0  0  0  0  0  0  0  0  0  0  0  0
   -5.9366    0.6729   -3.3181 S   0  0  0  0  0  0  0  0  0  0  0  0
   -6.0837    2.2042   -4.1500 C   0  0  0  0  0  0  0  0  0  0  0  0
   -5.1244    3.0792   -3.6821 C   0  0  0  0  0  0  0  0  0  0  0  0
   -4.8118    4.7590   -3.9899 S   0  0  0  0  0  0  0  0  0  0  0  0
   -3.5259    4.7457   -2.8152 C   0  0  0  0  0  0  0  0  0  0  0  0
   -2.7650    5.9830   -2.5839 C   0  0  0  0  0  0  0  0  0  0  0  0
   -3.0106    7.0288   -3.1347 O   0  0  0  0  0  0  0  0  0  0  0  0
   -1.7905    5.7891   -1.7007 O   0  0  0  0  0  0  0  0  0  0  0  0
   -0.9632    6.9046   -1.3673 C   0  0  0  0  0  0  0  0  0  0  0  0
   -0.3009    6.6239   -0.0309 C   0  0  0  0  0  0  0  0  0  0  0  0
   -3.3640    3.5244   -2.2212 C   0  0  0  0  0  0  0  0  0  0  0  0
   -4.2691    2.5349   -2.6819 C   0  0  0  0  0  0  0  0  0  0  0  0
   -2.4527    3.3062   -1.2718 F   0  0  0  0  0  0  0  0  0  0  0  0
   -7.0944    2.4145   -5.1281 C   0  0  0  0  0  0  0  0  0  0  0  0
   -8.6953    1.7611   -4.9241 S   0  0  0  0  0  0  0  0  0  0  0  0
   -9.2755    2.4866   -6.3719 C   0  0  0  0  0  0  0  0  0  0  0  0
   -8.2869    3.1867   -6.9919 C   0  0  0  0  0  0  0  0  0  0  0  0
   -8.2000    4.0887   -8.4790 S   0  0  0  0  0  0  0  0  0  0  0  0
   -6.4857    4.3425   -8.2328 C   0  0  0  0  0  0  0  0  0  0  0  0
   -5.7625    5.0937   -9.2662 C   0  0  0  0  0  0  0  0  0  0  0  0
   -6.3015    5.5504  -10.2450 O   0  0  0  0  0  0  0  0  0  0  0  0
   -4.4627    5.1914   -8.9878 O   0  0  0  0  0  0  0  0  0  0  0  0
   -3.6604    5.9414   -9.8998 C   0  0  0  0  0  0  0  0  0  0  0  0
   -3.7233    7.4304   -9.5924 C   0  0  0  0  0  0  0  0  0  0  0  0
   -6.0251    3.7908   -7.0708 C   0  0  0  0  0  0  0  0  0  0  0  0
   -7.0317    3.1450   -6.3064 C   0  0  0  0  0  0  0  0  0  0  0  0
   -4.7415    3.7968   -6.7114 F   0  0  0  0  0  0  0  0  0  0  0  0
    7.7465   -6.0969    5.7907 H   0  0  0  0  0  0  0  0  0  0  0  0
    9.8973    1.3213    5.1610 H   0  0  0  0  0  0  0  0  0  0  0  0
   11.3003    0.3071    5.6263 H   0  0  0  0  0  0  0  0  0  0  0  0
   11.6468   -0.2522    3.2021 H   0  0  0  0  0  0  0  0  0  0  0  0
   10.2817    0.7925    2.7755 H   0  0  0  0  0  0  0  0  0  0  0  0
   11.7451    1.4942    3.4775 H   0  0  0  0  0  0  0  0  0  0  0  0
   -2.7796   -8.8801    2.9847 H   0  0  0  0  0  0  0  0  0  0  0  0
   -1.5053   -9.8171    3.8286 H   0  0  0  0  0  0  0  0  0  0  0  0
   -2.1322  -10.8866    1.6514 H   0  0  0  0  0  0  0  0  0  0  0  0
   -1.6549   -9.4102    0.7977 H   0  0  0  0  0  0  0  0  0  0  0  0
   -0.4433  -10.3642    1.6663 H   0  0  0  0  0  0  0  0  0  0  0  0
    4.8621    3.8494    1.6644 H   0  0  0  0  0  0  0  0  0  0  0  0
    3.7181    4.5347    2.8376 H   0  0  0  0  0  0  0  0  0  0  0  0
    5.8886    2.4582    3.4942 H   0  0  0  0  0  0  0  0  0  0  0  0
    5.9976    4.1890    3.8554 H   0  0  0  0  0  0  0  0  0  0  0  0
    4.7806    3.1842    4.6570 H   0  0  0  0  0  0  0  0  0  0  0  0
   -5.5609   -7.3141   -1.0360 H   0  0  0  0  0  0  0  0  0  0  0  0
   -6.6959   -6.7227    0.1924 H   0  0  0  0  0  0  0  0  0  0  0  0
   -5.0230   -7.1965    1.9814 H   0  0  0  0  0  0  0  0  0  0  0  0
   -3.8496   -7.7078    0.7691 H   0  0  0  0  0  0  0  0  0  0  0  0
   -5.3175   -8.6678    1.0372 H   0  0  0  0  0  0  0  0  0  0  0  0
   -0.2170    7.0295   -2.1604 H   0  0  0  0  0  0  0  0  0  0  0  0
   -1.5842    7.8071   -1.3337 H   0  0  0  0  0  0  0  0  0  0  0  0
    0.3633    7.4445    0.2241 H   0  0  0  0  0  0  0  0  0  0  0  0
    0.2725    5.7020   -0.0760 H   0  0  0  0  0  0  0  0  0  0  0  0
   -1.0535    6.5212    0.7461 H   0  0  0  0  0  0  0  0  0  0  0  0
  -10.2932    2.3493   -6.6726 H   0  0  0  0  0  0  0  0  0  0  0  0
   -4.0072    5.7472  -10.9203 H   0  0  0  0  0  0  0  0  0  0  0  0
   -2.6489    5.5530   -9.7663 H   0  0  0  0  0  0  0  0  0  0  0  0
   -3.4405    7.6105   -8.5580 H   0  0  0  0  0  0  0  0  0  0  0  0
   -3.0425    7.9663  -10.2474 H   0  0  0  0  0  0  0  0  0  0  0  0
   -4.7326    7.8015   -9.7534 H   0  0  0  0  0  0  0  0  0  0  0  0
  1  2  1  0  0  0  0
  2  3  1  0  0  0  0
  3  4  2  0  0  0  0
  4  5  1  0  0  0  0
  5  6  1  0  0  0  0
  6  7  1  0  0  0  0
  7  8  2  0  0  0  0
  7  9  1  0  0  0  0
  9 10  1  0  0  0  0
 10 11  1  0  0  0  0
  6 12  2  0  0  0  0
 12 13  1  0  0  0  0
 12 14  1  0  0  0  0
  3 15  1  0  0  0  0
 15 16  1  0  0  0  0
 16 17  1  0  0  0  0
 17 18  2  0  0  0  0
 18 19  1  0  0  0  0
 19 20  1  0  0  0  0
 20 21  1  0  0  0  0
 21 22  2  0  0  0  0
 21 23  1  0  0  0  0
 23 24  1  0  0  0  0
 24 25  1  0  0  0  0
 20 26  2  0  0  0  0
 26 27  1  0  0  0  0
 26 28  1  0  0  0  0
 17 29  1  0  0  0  0
 29 30  1  0  0  0  0
 30 31  1  0  0  0  0
 31 32  2  0  0  0  0
 32 33  1  0  0  0  0
 33 34  1  0  0  0  0
 34 35  1  0  0  0  0
 35 36  2  0  0  0  0
 35 37  1  0  0  0  0
 37 38  1  0  0  0  0
 38 39  1  0  0  0  0
 34 40  2  0  0  0  0
 40 41  1  0  0  0  0
 40 42  1  0  0  0  0
 31 43  1  0  0  0  0
 43 44  1  0  0  0  0
 44 45  1  0  0  0  0
 45 46  2  0  0  0  0
 46 47  1  0  0  0  0
 47 48  1  0  0  0  0
 48 49  1  0  0  0  0
 49 50  2  0  0  0  0
 49 51  1  0  0  0  0
 51 52  1  0  0  0  0
 52 53  1  0  0  0  0
 48 54  2  0  0  0  0
 54 55  1  0  0  0  0
 54 56  1  0  0  0  0
 45 57  1  0  0  0  0
 57 58  1  0  0  0  0
 58 59  1  0  0  0  0
 59 60  2  0  0  0  0
 60 61  1  0  0  0  0
 61 62  1  0  0  0  0
 62 63  1  0  0  0  0
 63 64  2  0  0  0  0
 63 65  1  0  0  0  0
 65 66  1  0  0  0  0
 66 67  1  0  0  0  0
 62 68  2  0  0  0  0
 68 69  1  0  0  0  0
 68 70  1  0  0  0  0
 59 71  1  0  0  0  0
 71 72  1  0  0  0  0
 72 73  1  0  0  0  0
 73 74  2  0  0  0  0
 74 75  1  0  0  0  0
 75 76  1  0  0  0  0
 76 77  1  0  0  0  0
 77 78  2  0  0  0  0
 77 79  1  0  0  0  0
 79 80  1  0  0  0  0
 80 81  1  0  0  0  0
 76 82  2  0  0  0  0
 82 83  1  0  0  0  0
 82 84  1  0  0  0  0
 13  1  2  0  0  0  0
 27 15  2  0  0  0  0
 41 29  2  0  0  0  0
 55 43  2  0  0  0  0
 69 57  2  0  0  0  0
 83 71  2  0  0  0  0
 13  4  1  0  0  0  0
 27 18  1  0  0  0  0
 41 32  1  0  0  0  0
 55 46  1  0  0  0  0
 69 60  1  0  0  0  0
 83 74  1  0  0  0  0
  1 85  1  0  0  0  0
 10 86  1  0  0  0  0
 10 87  1  0  0  0  0
 11 88  1  0  0  0  0
 11 89  1  0  0  0  0
 11 90  1  0  0  0  0
 24 91  1  0  0  0  0
 24 92  1  0  0  0  0
 25 93  1  0  0  0  0
 25 94  1  0  0  0  0
 25 95  1  0  0  0  0
 38 96  1  0  0  0  0
 38 97  1  0  0  0  0
 39 98  1  0  0  0  0
 39 99  1  0  0  0  0
 39100  1  0  0  0  0
 52101  1  0  0  0  0
 52102  1  0  0  0  0
 53103  1  0  0  0  0
 53104  1  0  0  0  0
 53105  1  0  0  0  0
 66106  1  0  0  0  0
 66107  1  0  0  0  0
 67108  1  0  0  0  0
 67109  1  0  0  0  0
 67110  1  0  0  0  0
 73111  1  0  0  0  0
 80112  1  0  0  0  0
 80113  1  0  0  0  0
 81114  1  0  0  0  0
 81115  1  0  0  0  0
 81116  1  0  0  0  0
M  END
