
  xtb     02282216173D
 energy: -212.802005112926 gnorm: 0.000541745101 xtb: 6.4.1 (unknown)
110127  0     0  0            999 V2000
    6.6988   -0.9635   -6.7183 C   0  0  0  0  0  0  0  0  0  0  0  0
    6.0586   -2.3464   -5.8857 S   0  0  0  0  0  0  0  0  0  0  0  0
    5.9793    0.1734   -6.5177 C   0  0  0  0  0  0  0  0  0  0  0  0
    4.8778   -0.0575   -5.6714 C   0  0  0  0  0  0  0  0  0  0  0  0
    3.7767    0.6889   -5.1030 C   0  0  0  0  0  0  0  0  0  0  0  0
    3.4328    2.2727   -5.3168 S   0  0  0  0  0  0  0  0  0  0  0  0
    4.7961   -1.3909   -5.2493 C   0  0  0  0  0  0  0  0  0  0  0  0
    3.6558   -1.5293   -4.4078 C   0  0  0  0  0  0  0  0  0  0  0  0
    2.8408   -2.7328   -3.5159 S   0  0  0  0  0  0  0  0  0  0  0  0
    3.0277   -0.2795   -4.3061 C   0  0  0  0  0  0  0  0  0  0  0  0
    1.8889   -0.3023   -3.5060 C   0  0  0  0  0  0  0  0  0  0  0  0
    1.6337   -1.5656   -2.9930 C   0  0  0  0  0  0  0  0  0  0  0  0
    0.5971   -2.0033   -2.1305 C   0  0  0  0  0  0  0  0  0  0  0  0
   -0.3822   -1.2003   -1.6451 C   0  0  0  0  0  0  0  0  0  0  0  0
   -1.3799   -1.5865   -0.7167 C   0  0  0  0  0  0  0  0  0  0  0  0
   -2.4385   -0.3239   -0.0964 S   0  0  0  0  0  0  0  0  0  0  0  0
   -1.6540   -2.8175   -0.1411 C   0  0  0  0  0  0  0  0  0  0  0  0
   -2.6818   -2.7460    0.7958 C   0  0  0  0  0  0  0  0  0  0  0  0
   -3.3920   -3.6321    1.7068 C   0  0  0  0  0  0  0  0  0  0  0  0
   -3.2866   -5.2678    1.8042 S   0  0  0  0  0  0  0  0  0  0  0  0
   -3.1979   -1.4439    0.9399 C   0  0  0  0  0  0  0  0  0  0  0  0
   -4.2042   -1.4624    1.9329 C   0  0  0  0  0  0  0  0  0  0  0  0
   -5.3189   -0.4048    2.6695 S   0  0  0  0  0  0  0  0  0  0  0  0
   -4.3083   -2.7712    2.4351 C   0  0  0  0  0  0  0  0  0  0  0  0
   -5.2697   -2.8941    3.4386 C   0  0  0  0  0  0  0  0  0  0  0  0
   -5.9332   -1.7104    3.6954 C   0  0  0  0  0  0  0  0  0  0  0  0
   -6.9444   -1.3142    4.6239 C   0  0  0  0  0  0  0  0  0  0  0  0
   -7.5521   -1.9664    5.6397 C   0  0  0  0  0  0  0  0  0  0  0  0
   -7.4201   -3.3271    6.0783 C   0  0  0  0  0  0  0  0  0  0  0  0
   -7.4107   -4.6975    4.9788 S   0  0  0  0  0  0  0  0  0  0  0  0
   -7.2803   -3.7274    7.3909 C   0  0  0  0  0  0  0  0  0  0  0  0
   -7.0385   -5.0999    7.5062 C   0  0  0  0  0  0  0  0  0  0  0  0
   -6.5769   -6.0373    8.5243 C   0  0  0  0  0  0  0  0  0  0  0  0
   -6.4017   -5.7557   10.1243 S   0  0  0  0  0  0  0  0  0  0  0  0
   -7.0669   -5.7544    6.2708 C   0  0  0  0  0  0  0  0  0  0  0  0
   -6.5817   -7.0801    6.4500 C   0  0  0  0  0  0  0  0  0  0  0  0
   -6.0765   -8.3838    5.4764 S   0  0  0  0  0  0  0  0  0  0  0  0
   -6.2525   -7.2533    7.7978 C   0  0  0  0  0  0  0  0  0  0  0  0
   -5.5443   -8.4448    8.0308 C   0  0  0  0  0  0  0  0  0  0  0  0
   -5.3057   -9.1353    6.8740 C   0  0  0  0  0  0  0  0  0  0  0  0
   -4.4346  -10.2728    6.6458 C   0  0  0  0  0  0  0  0  0  0  0  0
   -3.3277  -10.1955    5.8871 C   0  0  0  0  0  0  0  0  0  0  0  0
   -2.7552   -9.0204    5.2950 C   0  0  0  0  0  0  0  0  0  0  0  0
   -3.1451   -7.3840    5.8282 S   0  0  0  0  0  0  0  0  0  0  0  0
   -1.7954   -9.0097    4.3052 C   0  0  0  0  0  0  0  0  0  0  0  0
   -1.3971   -7.7173    3.9532 C   0  0  0  0  0  0  0  0  0  0  0  0
   -0.5009   -7.0884    3.0069 C   0  0  0  0  0  0  0  0  0  0  0  0
    0.4790   -7.8083    1.9155 S   0  0  0  0  0  0  0  0  0  0  0  0
   -2.0476   -6.7229    4.7051 C   0  0  0  0  0  0  0  0  0  0  0  0
   -1.6019   -5.4512    4.2601 C   0  0  0  0  0  0  0  0  0  0  0  0
   -1.8194   -3.7908    4.6033 S   0  0  0  0  0  0  0  0  0  0  0  0
   -0.6539   -5.6559    3.2356 C   0  0  0  0  0  0  0  0  0  0  0  0
   -0.1291   -4.4769    2.7298 C   0  0  0  0  0  0  0  0  0  0  0  0
   -0.6739   -3.3522    3.3365 C   0  0  0  0  0  0  0  0  0  0  0  0
   -0.4613   -1.9919    3.0121 C   0  0  0  0  0  0  0  0  0  0  0  0
    0.4436   -1.5832    2.0833 C   0  0  0  0  0  0  0  0  0  0  0  0
    0.5893   -0.2682    1.5896 C   0  0  0  0  0  0  0  0  0  0  0  0
    1.8204    0.0153    0.3577 S   0  0  0  0  0  0  0  0  0  0  0  0
   -0.1677    0.8692    1.8294 C   0  0  0  0  0  0  0  0  0  0  0  0
    0.2115    1.9343    1.0193 C   0  0  0  0  0  0  0  0  0  0  0  0
   -0.2123    3.3016    0.7649 C   0  0  0  0  0  0  0  0  0  0  0  0
   -1.4179    4.1185    1.5063 S   0  0  0  0  0  0  0  0  0  0  0  0
    1.2754    1.6179    0.1517 C   0  0  0  0  0  0  0  0  0  0  0  0
    1.5457    2.7438   -0.6592 C   0  0  0  0  0  0  0  0  0  0  0  0
    2.5861    3.1936   -1.9375 S   0  0  0  0  0  0  0  0  0  0  0  0
    0.6556    3.7743   -0.3031 C   0  0  0  0  0  0  0  0  0  0  0  0
    0.8312    4.9255   -1.0651 C   0  0  0  0  0  0  0  0  0  0  0  0
    1.8386    4.7865   -2.0083 C   0  0  0  0  0  0  0  0  0  0  0  0
    2.2569    5.7548   -2.9510 C   0  0  0  0  0  0  0  0  0  0  0  0
    3.2067    5.5446   -3.8948 C   0  0  0  0  0  0  0  0  0  0  0  0
    3.6272    6.4869   -4.8598 C   0  0  0  0  0  0  0  0  0  0  0  0
    2.9881    8.1284   -4.9002 S   0  0  0  0  0  0  0  0  0  0  0  0
    4.5534    6.2720   -5.8687 C   0  0  0  0  0  0  0  0  0  0  0  0
    4.7468    7.4015   -6.6579 C   0  0  0  0  0  0  0  0  0  0  0  0
    5.5454    7.7952   -7.8126 C   0  0  0  0  0  0  0  0  0  0  0  0
    6.6098    6.8716   -8.6403 S   0  0  0  0  0  0  0  0  0  0  0  0
    3.9646    8.4951   -6.2517 C   0  0  0  0  0  0  0  0  0  0  0  0
    4.2393    9.5885   -7.1150 C   0  0  0  0  0  0  0  0  0  0  0  0
    3.7655   11.2134   -7.3306 S   0  0  0  0  0  0  0  0  0  0  0  0
    5.1915    9.1801   -8.0618 C   0  0  0  0  0  0  0  0  0  0  0  0
    5.5296   10.1976   -8.9601 C   0  0  0  0  0  0  0  0  0  0  0  0
    4.8498   11.3681   -8.7077 C   0  0  0  0  0  0  0  0  0  0  0  0
    4.9615   12.6008   -9.4322 C   0  0  0  0  0  0  0  0  0  0  0  0
    4.2945   13.7185   -9.1522 C   0  0  0  0  0  0  0  0  0  0  0  0
    7.5819   -1.0908   -7.3119 H   0  0  0  0  0  0  0  0  0  0  0  0
    6.2233    1.1248   -6.9534 H   0  0  0  0  0  0  0  0  0  0  0  0
    1.2752    0.5567   -3.3078 H   0  0  0  0  0  0  0  0  0  0  0  0
    0.6271   -3.0440   -1.8411 H   0  0  0  0  0  0  0  0  0  0  0  0
   -0.4091   -0.1619   -1.9454 H   0  0  0  0  0  0  0  0  0  0  0  0
   -1.1306   -3.7209   -0.3941 H   0  0  0  0  0  0  0  0  0  0  0  0
   -5.4509   -3.8160    3.9535 H   0  0  0  0  0  0  0  0  0  0  0  0
   -7.2089   -0.2681    4.5200 H   0  0  0  0  0  0  0  0  0  0  0  0
   -8.1834   -1.3644    6.2836 H   0  0  0  0  0  0  0  0  0  0  0  0
   -7.2718   -3.0368    8.2147 H   0  0  0  0  0  0  0  0  0  0  0  0
   -5.1571   -8.7444    8.9877 H   0  0  0  0  0  0  0  0  0  0  0  0
   -4.7035  -11.2137    7.1061 H   0  0  0  0  0  0  0  0  0  0  0  0
   -2.7638  -11.1001    5.6988 H   0  0  0  0  0  0  0  0  0  0  0  0
   -1.4161   -9.9044    3.8455 H   0  0  0  0  0  0  0  0  0  0  0  0
    0.5912   -4.4356    1.9345 H   0  0  0  0  0  0  0  0  0  0  0  0
   -1.0879   -1.2684    3.5137 H   0  0  0  0  0  0  0  0  0  0  0  0
    1.0997   -2.3157    1.6352 H   0  0  0  0  0  0  0  0  0  0  0  0
   -0.9672    0.9092    2.5458 H   0  0  0  0  0  0  0  0  0  0  0  0
    0.2551    5.8261   -0.9541 H   0  0  0  0  0  0  0  0  0  0  0  0
    1.7571    6.7140   -2.8969 H   0  0  0  0  0  0  0  0  0  0  0  0
    3.6895    4.5775   -3.9539 H   0  0  0  0  0  0  0  0  0  0  0  0
    5.0461    5.3278   -6.0120 H   0  0  0  0  0  0  0  0  0  0  0  0
    6.2391   10.0889   -9.7605 H   0  0  0  0  0  0  0  0  0  0  0  0
    5.6556   12.5715  -10.2623 H   0  0  0  0  0  0  0  0  0  0  0  0
    3.5993   13.7699   -8.3302 H   0  0  0  0  0  0  0  0  0  0  0  0
    4.4234   14.6130   -9.7345 H   0  0  0  0  0  0  0  0  0  0  0  0
  1  2  1  0  0  0  0
  1  3  2  0  0  0  0
  3  4  1  0  0  0  0
  4  5  1  0  0  0  0
  5  6  2  0  0  0  0
  4  7  2  0  0  0  0
  7  8  1  0  0  0  0
  8  9  1  0  0  0  0
  8 10  2  0  0  0  0
 10 11  1  0  0  0  0
 11 12  2  0  0  0  0
 12 13  1  0  0  0  0
 13 14  2  0  0  0  0
 14 15  1  0  0  0  0
 15 16  1  0  0  0  0
 15 17  2  0  0  0  0
 17 18  1  0  0  0  0
 18 19  1  0  0  0  0
 19 20  2  0  0  0  0
 18 21  2  0  0  0  0
 21 22  1  0  0  0  0
 22 23  1  0  0  0  0
 22 24  2  0  0  0  0
 24 25  1  0  0  0  0
 25 26  2  0  0  0  0
 26 27  1  0  0  0  0
 27 28  2  0  0  0  0
 28 29  1  0  0  0  0
 29 30  1  0  0  0  0
 29 31  2  0  0  0  0
 31 32  1  0  0  0  0
 32 33  1  0  0  0  0
 33 34  2  0  0  0  0
 32 35  2  0  0  0  0
 35 36  1  0  0  0  0
 36 37  1  0  0  0  0
 36 38  2  0  0  0  0
 38 39  1  0  0  0  0
 39 40  2  0  0  0  0
 40 41  1  0  0  0  0
 41 42  2  0  0  0  0
 42 43  1  0  0  0  0
 43 44  1  0  0  0  0
 43 45  2  0  0  0  0
 45 46  1  0  0  0  0
 46 47  1  0  0  0  0
 47 48  2  0  0  0  0
 46 49  2  0  0  0  0
 49 50  1  0  0  0  0
 50 51  1  0  0  0  0
 50 52  2  0  0  0  0
 52 53  1  0  0  0  0
 53 54  2  0  0  0  0
 54 55  1  0  0  0  0
 55 56  2  0  0  0  0
 56 57  1  0  0  0  0
 57 58  1  0  0  0  0
 57 59  2  0  0  0  0
 59 60  1  0  0  0  0
 60 61  1  0  0  0  0
 61 62  2  0  0  0  0
 60 63  2  0  0  0  0
 63 64  1  0  0  0  0
 64 65  1  0  0  0  0
 64 66  2  0  0  0  0
 66 67  1  0  0  0  0
 67 68  2  0  0  0  0
 68 69  1  0  0  0  0
 69 70  2  0  0  0  0
 70 71  1  0  0  0  0
 71 72  1  0  0  0  0
 71 73  2  0  0  0  0
 73 74  1  0  0  0  0
 74 75  1  0  0  0  0
 75 76  2  0  0  0  0
 74 77  2  0  0  0  0
 77 78  1  0  0  0  0
 78 79  1  0  0  0  0
 78 80  2  0  0  0  0
 80 81  1  0  0  0  0
 81 82  2  0  0  0  0
 82 83  1  0  0  0  0
 83 84  2  0  0  0  0
  7  2  1  0  0  0  0
 21 16  1  0  0  0  0
 35 30  1  0  0  0  0
 49 44  1  0  0  0  0
 63 58  1  0  0  0  0
 77 72  1  0  0  0  0
 10  5  1  0  0  0  0
 24 19  1  0  0  0  0
 38 33  1  0  0  0  0
 52 47  1  0  0  0  0
 66 61  1  0  0  0  0
 80 75  1  0  0  0  0
 12  9  1  0  0  0  0
 26 23  1  0  0  0  0
 40 37  1  0  0  0  0
 54 51  1  0  0  0  0
 68 65  1  0  0  0  0
 82 79  1  0  0  0  0
  1 85  1  0  0  0  0
  3 86  1  0  0  0  0
 11 87  1  0  0  0  0
 13 88  1  0  0  0  0
 14 89  1  0  0  0  0
 17 90  1  0  0  0  0
 25 91  1  0  0  0  0
 27 92  1  0  0  0  0
 28 93  1  0  0  0  0
 31 94  1  0  0  0  0
 39 95  1  0  0  0  0
 41 96  1  0  0  0  0
 42 97  1  0  0  0  0
 45 98  1  0  0  0  0
 53 99  1  0  0  0  0
 55100  1  0  0  0  0
 56101  1  0  0  0  0
 59102  1  0  0  0  0
 67103  1  0  0  0  0
 69104  1  0  0  0  0
 70105  1  0  0  0  0
 73106  1  0  0  0  0
 81107  1  0  0  0  0
 83108  1  0  0  0  0
 84109  1  0  0  0  0
 84110  1  0  0  0  0
M  END
