224

C         -9.70520       -4.25280       -7.78290
C         -9.11240       -4.80940       -6.70730
C         -7.92550       -4.12420       -6.31590
C         -7.07480       -4.40300       -5.23720
C         -7.31010       -5.50740       -4.31870
S         -7.39590       -7.15730       -4.85590
C         -7.58060       -7.75540       -3.24020
C         -7.76140       -9.20900       -2.97440
C         -9.19650       -9.64810       -3.27410
C         -7.58910       -6.72330       -2.35080
Cl        -7.75090       -6.91370       -0.65320
C         -7.43350       -5.44920       -2.95960
Cl        -7.49180       -3.99010       -2.06950
C         -5.97210       -3.57560       -5.07210
C         -5.70680       -2.46230       -5.90600
C         -6.58190       -2.15930       -6.96290
C         -6.35250       -1.00870       -7.82080
S         -6.26500       -1.16650       -9.55030
C         -5.96510        0.52370       -9.76740
C         -5.82930        1.11680      -11.12610
C         -7.19910        1.50580      -11.68750
C         -5.95190        1.16190       -8.56320
C         -6.16710        0.29640       -7.45770
Cl        -6.26640        0.87370       -5.84560
Cl        -5.68940        2.84710       -8.37210
C         -7.65930       -3.01620       -7.15450
S         -8.87600       -2.86120       -8.39110
C         -4.49190       -1.82500       -5.55340
C         -3.84570       -2.41740       -4.50780
S         -4.71650       -3.80240       -3.89280
C         -2.61440       -2.00660       -3.91750
C         -1.86870       -2.61180       -2.94820
C         -0.70940       -1.88140       -2.58930
C          0.27120       -2.20770       -1.63350
C          0.24410       -3.44870       -0.87620
S         -1.12740       -3.89040        0.08480
C         -0.37390       -5.33520        0.65800
C         -1.07330       -6.20900        1.63910
C         -1.13720       -5.54130        3.01390
C          0.87320       -5.45680        0.12260
Cl         1.93380       -6.76560        0.44780
C          1.22700       -4.39130       -0.74910
Cl         2.71110       -4.35970       -1.60540
C          1.28660       -1.28610       -1.43130
C          1.39230       -0.07730       -2.16470
C          0.43590        0.23680       -3.14660
C          0.51450        1.48710       -3.88090
S          0.71680        2.99820       -3.03760
C          0.70720        3.91840       -4.50110
C          0.84960        5.40150       -4.51750
C          1.20670        5.97190       -3.15380
C          0.55630        3.08860       -5.57140
C          0.44820        1.71500       -5.22740
Cl         0.35200        0.48670       -6.41740
Cl         0.51380        3.64600       -7.19300
C         -0.58970       -0.68080       -3.33560
S         -1.90050       -0.50690       -4.45600
C          2.52500        0.67060       -1.78760
C          3.24010        0.10150       -0.76920
S          2.54740       -1.41630       -0.23810
C          4.38910        0.65400       -0.16140
S          5.04350        0.04380        1.32150
C          6.21480        1.31690        1.45220
C          6.12230        2.16110        0.33920
C          5.10070        1.77960       -0.57650
N          4.88310        2.47860       -1.71430
C          5.64930        3.51740       -1.91160
O          5.49920        4.27320       -2.99990
C          4.44490        3.92400       -3.89330
C          4.77000        2.71290       -4.75520
C          6.66980        3.92240       -0.97460
C          7.49750        5.14900       -1.24790
N          8.49030        5.45510       -0.24200
N          6.88950        3.25050        0.11880
C          6.98540        1.52400        2.60860
C          7.06380        0.65800        3.65500
C          7.50490        1.02380        4.93980
S          7.82320        2.68180        5.35930
C          7.69590        2.39060        7.06500
C          7.56210        1.03310        7.30610
C          7.46820        0.25510        6.10300
N          7.30680       -1.08190        6.14640
C          7.19520       -1.62110        7.33190
O          7.11520       -2.94330        7.45360
C          7.24520       -3.69330        6.24590
C          7.15690       -5.16700        6.59370
C          7.17620       -0.83280        8.54260
C          6.94310       -1.48430        9.87550
N          5.88540       -0.78690       10.59800
N          7.37280        0.45180        8.51670
C          7.41490        3.53870        7.91330
C          6.33760        4.29700        7.65910
C          5.35210        3.88510        6.67520
C          4.87480        2.61950        6.53780
C          4.03210        2.42650        5.41680
C          3.44310        1.22470        4.97730
C          3.54530        0.01500        5.77400
S          3.31710        0.10250        7.50360
C          3.46280       -1.60690        7.70620
C          3.36000       -2.22600        9.05370
C          1.94750       -2.09130        9.62460
C          3.66610       -2.19890        6.49720
Cl         3.79220       -3.89500        6.27950
C          3.72920       -1.29130        5.40460
Cl         4.10170       -1.83510        3.82230
C          2.68560        1.29770        3.81100
C          2.48680        2.50850        3.09610
C          3.08550        3.70370        3.53850
C          2.83770        4.97090        2.87250
S          2.31430        6.35140        3.79530
C          2.20420        7.35540        2.38980
C          1.75980        8.77300        2.48720
C          0.38180        8.88570        3.13810
C          2.55810        6.64850        1.28050
C          2.91330        5.29870        1.54740
Cl         3.45320        4.23730        0.30680
Cl         2.59770        7.30510       -0.30430
C          3.85350        3.62880        4.69450
S          4.71880        4.94950        5.43880
C          1.54580        2.35400        2.04820
C          1.03270        1.09310        1.95430
S          1.72370        0.01260        3.13870
C         -0.04310        0.67290        1.11140
C         -0.57640        1.34780        0.05250
C         -1.77330        0.77250       -0.44410
C         -2.62940        1.28310       -1.44210
C         -2.47690        2.64990       -1.91230
S         -2.15970        3.87080       -0.69970
C         -2.28730        5.16910       -1.83150
C         -2.14800        6.59670       -1.42380
C         -1.32340        6.77230       -0.15420
C         -2.55490        4.67280       -3.07150
Cl        -2.76870        5.65570       -4.46210
C         -2.66720        3.25590       -3.12640
Cl        -2.92380        2.47800       -4.63010
C         -3.73050        0.49370       -1.76900
C         -4.07380       -0.68870       -1.06330
C         -3.28160       -1.13230        0.00770
C         -3.72040       -2.18180        0.91750
S         -3.73120       -1.83550        2.62660
C         -4.35030       -3.39880        3.03280
C         -4.62520       -3.79260        4.44320
C         -3.57730       -3.25180        5.41040
C         -4.53550       -4.13300        1.90070
C         -4.18940       -3.44860        0.70410
Cl        -4.27550       -4.24340       -0.80930
Cl        -5.12200       -5.74660        1.88690
C         -2.11930       -0.40780        0.25680
S         -0.95990       -0.76250        1.50500
C         -5.32180       -1.21600       -1.50380
C         -5.87750       -0.49750       -2.49900
S         -4.94440        0.88170       -2.95100
H        -10.60170       -4.57010       -8.27860
H         -9.48880       -5.67670       -6.19650
H         -7.52880       -9.40150       -1.92550
H         -7.07070       -9.78150       -3.59660
H         -9.31250      -10.70930       -3.07150
H         -9.89760       -9.09600       -2.65270
H         -9.43650       -9.46370       -4.31890
H         -5.35440        0.39450      -11.79180
H         -5.19610        2.00370      -11.06060
H         -7.67660        2.23710      -11.04060
H         -7.84050        0.63040      -11.75570
H         -7.08790        1.93680      -12.67880
H         -4.09350       -0.96890       -6.06730
H         -2.14310       -3.55160       -2.50520
H         -2.08930       -6.40520        1.28930
H         -0.53910       -7.15780        1.70820
H         -1.64920       -4.58430        2.93910
H         -1.67700       -6.17560        3.71210
H         -0.13480       -5.36920        3.39840
H         -0.09320        5.83680       -4.86200
H          1.61280        5.66820       -5.25460
H          0.46380        5.67310       -2.41870
H          1.24100        7.05740       -3.19480
H          2.17690        5.60960       -2.82410
H          2.83020        1.59620       -2.23410
H          3.53740        3.73330       -3.31090
H          4.30880        4.81420       -4.51180
H          5.68910        2.88070       -5.31100
H          4.88680        1.83030       -4.13180
H          3.95680        2.54380       -5.45590
H          6.82150        6.00570       -1.35000
H          7.99820        5.02240       -2.21430
H          8.03330        5.57170        0.65730
H          9.12330        4.66750       -0.14210
H          7.47590        2.48760        2.66810
H          6.66530       -0.34410        3.56830
H          6.45260       -3.39600        5.55260
H          8.20730       -3.44780        5.78140
H          7.26300       -5.76020        5.69040
H          6.19520       -5.38530        7.04950
H          7.94410       -5.43700        7.29260
H          6.64060       -2.52360        9.72390
H          7.90610       -1.48090       10.41490
H          5.90600       -1.04390       11.57940
H          6.04670        0.21370       10.53180
H          8.09010        3.77110        8.72390
H          6.16020        5.21630        8.19820
H          5.13210        1.83980        7.22830
H          3.62840       -3.28050        8.97050
H          4.07140       -1.73000        9.72240
H          1.67620       -1.04190        9.71050
H          1.90010       -2.54550       10.61040
H          1.22500       -2.58480        8.97840
H          1.73660        9.19560        1.48140
H          2.48330        9.33880        3.07990
H          0.41130        8.48900        4.14990
H          0.07200        9.92630        3.17980
H         -0.35340        8.32350        2.56790
H          1.20970        3.16230        1.42710
H         -0.11530        2.22100       -0.36960
H         -1.69620        7.14910       -2.25130
H         -3.14800        7.01360       -1.26410
H         -0.31820        6.38070       -0.28770
H         -1.78900        6.24520        0.67570
H         -1.25080        7.82730        0.09700
H         -5.61110       -3.41550        4.73350
H         -4.66090       -4.88310        4.49160
H         -3.81160       -3.56040        6.42570
H         -3.55470       -2.16520        5.37260
H         -2.58980       -3.62530        5.15190
H         -5.77500       -2.09210       -1.08380
H         -6.79790       -0.68880       -3.01600
