132

C          4.95250        2.68360        2.62210
S          5.69000        2.79790        4.16310
C          5.05540        1.29010        4.64870
C          4.29750        0.71130        3.65850
C          4.24390        1.51620        2.46600
C          3.48880        1.08940        1.32540
C          2.83060       -0.13470        1.41270
C          2.89500       -0.91000        2.60610
C          3.59350       -0.51650        3.69950
N          2.07720       -0.65380        0.37970
C          3.42980        1.96600        0.17840
C          2.34270        2.08490       -0.61190
C          2.15510        2.93810       -1.73280
S          3.48150        3.68760       -2.57560
C          2.47240        4.20700       -3.85480
C          1.15860        3.84450       -3.66290
C          0.95620        3.16330       -2.41690
C         -0.34860        2.73620       -2.03070
C         -1.37110        2.82840       -2.96440
C         -1.13620        3.45150       -4.22300
C          0.06600        3.98900       -4.55420
N         -2.66080        2.46430       -2.65900
C         -0.51630        2.29460       -0.65730
C         -1.02610        1.13570       -0.19490
C         -0.82340        0.72480        1.15510
S         -1.21690       -0.89650        1.61910
C         -0.45180       -0.77370        3.16960
C          0.06590        0.50980        3.32360
C         -0.14210        1.36010        2.19500
N          0.30150        2.64180        2.20520
C          0.93520        3.03210        3.27600
O          1.35520        4.29330        3.41320
C          1.07940        5.20410        2.35370
C          2.17570        5.18730        1.29910
C          1.17950        2.16160        4.40100
C          1.93090        2.67140        5.60020
N          2.17900        1.67850        6.62370
N          0.74140        0.93880        4.41620
C         -0.35020       -1.82520        4.12470
C         -0.73160       -3.10210        3.95400
C         -1.32020       -3.57100        2.70860
S         -0.33960       -3.99240        1.33580
C         -1.70200       -4.14280        0.26710
C         -2.86860       -3.94940        0.98140
C         -2.65040       -3.62860        2.36350
N         -3.69410       -3.39390        3.20250
C         -4.88190       -3.48770        2.68290
O         -5.97370       -3.29390        3.42980
C         -5.76570       -2.96830        4.80060
C         -5.31560       -1.52640        4.99070
C         -5.11050       -3.82190        1.29160
C         -6.51220       -3.89390        0.74850
N         -6.59780       -4.12850       -0.67730
N         -4.12490       -4.05030        0.48010
C         -1.51040       -4.49870       -1.10990
C         -2.01510       -3.90470       -2.21320
C         -2.75370       -2.70120       -2.37430
S         -3.44750       -1.82790       -1.04520
C         -4.14100       -0.65660       -2.06730
C         -3.86040       -0.88850       -3.39590
C         -3.02820       -2.04420       -3.58730
C         -2.57990       -2.35130       -4.89810
C         -3.05090       -1.59550       -5.96260
C         -3.93370       -0.50470       -5.75490
C         -4.31230       -0.13660       -4.50490
N         -2.68880       -1.90800       -7.25730
C         -1.59530       -3.41060       -5.18730
C         -0.29140       -3.32500       -4.88300
C          0.36430       -2.20430       -4.27570
S         -0.26150       -0.59310       -4.48550
C          1.12550        0.11610       -3.80440
C          2.03120       -0.82220       -3.37140
C          1.59220       -2.16840       -3.61580
C          2.38950       -3.26390       -3.17650
C          3.61370       -2.99040       -2.57930
C          4.04980       -1.64740       -2.39430
C          3.28750       -0.58700       -2.76150
N          4.45850       -3.99060       -2.15030
C          1.86220       -4.62460       -3.25340
C          2.53200       -5.70460       -3.64070
H          5.09270        3.48550        1.92670
H          5.26310        0.91530        5.63080
H          2.35400       -1.84680        2.61760
H          3.62540       -1.12220        4.59250
H          1.84060       -1.63050        0.46970
H          2.33560       -0.37720       -0.55660
H          4.28270        2.61300        0.01380
H          1.47680        1.49430       -0.36660
H          2.89920        4.72530       -4.68990
H         -1.97060        3.52270       -4.90630
H          0.21340        4.49910       -5.49390
H         -3.26480        2.24930       -3.43450
H         -2.78210        1.88370       -1.84660
H         -0.05830        2.94680        0.07610
H         -1.46240        0.39470       -0.85390
H          0.11350        4.95090        1.90520
H          1.01960        6.18370        2.83540
H          1.93350        5.88950        0.50630
H          2.26480        4.19040        0.87630
H          3.12690        5.46740        1.74480
H          1.36470        3.50010        6.04010
H          2.88760        3.08320        5.26400
H          2.69970        0.90970        6.21210
H          1.29160        1.29050        6.92970
H          0.09320       -1.51450        5.06090
H         -0.61980       -3.81610        4.75830
H         -6.73640       -3.14000        5.27160
H         -5.01960       -3.65080        5.22050
H         -6.02510       -0.84670        4.52480
H         -4.33630       -1.38340        4.54170
H         -5.25390       -1.30320        6.05180
H         -7.02420       -2.95480        0.98510
H         -7.05160       -4.69170        1.27140
H         -6.09570       -3.39380       -1.16720
H         -6.11850       -4.99530       -0.90210
H         -0.83690       -5.33390       -1.26410
H         -1.77900       -4.37870       -3.15580
H         -4.74260        0.12860       -1.65190
H         -4.27440        0.04630       -6.61990
H         -4.96500        0.70830       -4.33960
H         -2.79970       -1.17480       -7.93840
H         -1.84560       -2.45070       -7.35870
H         -1.96270       -4.28160       -5.71730
H          0.36040       -4.15650       -5.12040
H          1.20900        1.18120       -3.75850
H          5.01150       -1.49130       -1.92570
H          3.61820        0.42820       -2.60180
H          4.03200       -4.89470       -2.00910
H          5.13240       -3.72440       -1.44990
H          0.82930       -4.71900       -2.93840
H          3.53790       -5.64950       -4.02260
H          2.07450       -6.68020       -3.63870
