
  xtb     02282219313D
 energy: -390.273410520408 gnorm: 0.000600612689 xtb: 6.4.1 (unknown)
209229  0     0  0            999 V2000
    3.2752   -7.6601    8.7676 C   0  0  0  0  0  0  0  0  0  0  0  0
    3.6926   -6.4202    8.4397 C   0  0  0  0  0  0  0  0  0  0  0  0
    2.7368   -5.7001    7.6649 C   0  0  0  0  0  0  0  0  0  0  0  0
    2.8279   -4.3892    7.1671 C   0  0  0  0  0  0  0  0  0  0  0  0
    3.9720   -3.5451    7.4686 C   0  0  0  0  0  0  0  0  0  0  0  0
    4.8694   -2.7384    6.2152 S   0  0  0  0  0  0  0  0  0  0  0  0
    5.9628   -2.0252    7.3498 C   0  0  0  0  0  0  0  0  0  0  0  0
    7.0495   -1.1036    6.9174 C   0  0  0  0  0  0  0  0  0  0  0  0
    6.6980    0.3479    7.2552 C   0  0  0  0  0  0  0  0  0  0  0  0
    5.6322   -2.3906    8.6207 C   0  0  0  0  0  0  0  0  0  0  0  0
    6.4934   -1.8836   10.0157 Cl  0  0  0  0  0  0  0  0  0  0  0  0
    4.5047   -3.2501    8.6930 C   0  0  0  0  0  0  0  0  0  0  0  0
    3.8431   -3.7765   10.1871 Cl  0  0  0  0  0  0  0  0  0  0  0  0
    1.7780   -3.9393    6.3782 C   0  0  0  0  0  0  0  0  0  0  0  0
    0.6400   -4.7333    6.1025 C   0  0  0  0  0  0  0  0  0  0  0  0
    0.5397   -6.0417    6.6045 C   0  0  0  0  0  0  0  0  0  0  0  0
   -0.5960   -6.8776    6.2474 C   0  0  0  0  0  0  0  0  0  0  0  0
   -2.2299   -6.3335    6.4937 S   0  0  0  0  0  0  0  0  0  0  0  0
   -2.9001   -7.7363    5.7380 C   0  0  0  0  0  0  0  0  0  0  0  0
   -4.3715   -7.9267    5.6182 C   0  0  0  0  0  0  0  0  0  0  0  0
   -4.9389   -8.6286    6.8537 C   0  0  0  0  0  0  0  0  0  0  0  0
   -1.9054   -8.5801    5.3447 C   0  0  0  0  0  0  0  0  0  0  0  0
   -0.6005   -8.0991    5.6320 C   0  0  0  0  0  0  0  0  0  0  0  0
    0.8001   -8.9612    5.1592 Cl  0  0  0  0  0  0  0  0  0  0  0  0
   -2.1802  -10.0701    4.5411 Cl  0  0  0  0  0  0  0  0  0  0  0  0
    1.5957   -6.4922    7.3859 C   0  0  0  0  0  0  0  0  0  0  0  0
    1.7109   -8.0531    8.1459 S   0  0  0  0  0  0  0  0  0  0  0  0
   -0.2594   -4.0724    5.2364 C   0  0  0  0  0  0  0  0  0  0  0  0
    0.1548   -2.8337    4.8502 C   0  0  0  0  0  0  0  0  0  0  0  0
    1.6805   -2.3881    5.5827 S   0  0  0  0  0  0  0  0  0  0  0  0
   -0.5196   -2.0150    3.8988 C   0  0  0  0  0  0  0  0  0  0  0  0
   -0.1506   -0.8363    3.3241 C   0  0  0  0  0  0  0  0  0  0  0  0
   -1.0455   -0.3985    2.3129 C   0  0  0  0  0  0  0  0  0  0  0  0
   -0.9649    0.7610    1.5135 C   0  0  0  0  0  0  0  0  0  0  0  0
    0.0048    1.7966    1.8166 C   0  0  0  0  0  0  0  0  0  0  0  0
    1.0363    2.4996    0.6080 S   0  0  0  0  0  0  0  0  0  0  0  0
    1.7768    3.5697    1.7468 C   0  0  0  0  0  0  0  0  0  0  0  0
    2.8405    4.5282    1.3318 C   0  0  0  0  0  0  0  0  0  0  0  0
    4.1891    4.1953    1.9723 C   0  0  0  0  0  0  0  0  0  0  0  0
    1.2461    3.3810    2.9889 C   0  0  0  0  0  0  0  0  0  0  0  0
    1.6996    4.2807    4.3769 Cl  0  0  0  0  0  0  0  0  0  0  0  0
    0.2459    2.3764    3.0338 C   0  0  0  0  0  0  0  0  0  0  0  0
   -0.6249    2.0152    4.4672 Cl  0  0  0  0  0  0  0  0  0  0  0  0
   -1.8495    0.8443    0.4441 C   0  0  0  0  0  0  0  0  0  0  0  0
   -2.8396   -0.1379    0.2067 C   0  0  0  0  0  0  0  0  0  0  0  0
   -3.0605   -1.1742    1.1262 C   0  0  0  0  0  0  0  0  0  0  0  0
   -4.2563   -1.9884    1.0523 C   0  0  0  0  0  0  0  0  0  0  0  0
   -4.2451   -3.7065    1.3011 S   0  0  0  0  0  0  0  0  0  0  0  0
   -5.9666   -3.8220    1.1893 C   0  0  0  0  0  0  0  0  0  0  0  0
   -6.6729   -5.1256    1.3240 C   0  0  0  0  0  0  0  0  0  0  0  0
   -6.9147   -5.7765   -0.0388 C   0  0  0  0  0  0  0  0  0  0  0  0
   -6.5058   -2.5922    0.9524 C   0  0  0  0  0  0  0  0  0  0  0  0
   -5.5448   -1.5504    0.8790 C   0  0  0  0  0  0  0  0  0  0  0  0
   -6.0001    0.0945    0.7009 Cl  0  0  0  0  0  0  0  0  0  0  0  0
   -8.1898   -2.3065    0.7883 Cl  0  0  0  0  0  0  0  0  0  0  0  0
   -2.1067   -1.3161    2.1240 C   0  0  0  0  0  0  0  0  0  0  0  0
   -2.0266   -2.6305    3.2484 S   0  0  0  0  0  0  0  0  0  0  0  0
   -3.4883    0.0448   -1.0337 C   0  0  0  0  0  0  0  0  0  0  0  0
   -3.0875    1.1617   -1.6982 C   0  0  0  0  0  0  0  0  0  0  0  0
   -1.9033    2.0832   -0.7871 S   0  0  0  0  0  0  0  0  0  0  0  0
   -3.5147    1.4525   -3.0318 C   0  0  0  0  0  0  0  0  0  0  0  0
   -4.1961    2.9518   -3.5597 S   0  0  0  0  0  0  0  0  0  0  0  0
   -4.6068    2.3277   -5.1250 C   0  0  0  0  0  0  0  0  0  0  0  0
   -4.2330    0.9957   -5.2188 C   0  0  0  0  0  0  0  0  0  0  0  0
   -3.5788    0.5085   -4.0448 C   0  0  0  0  0  0  0  0  0  0  0  0
   -3.0121   -0.7266   -4.0196 N   0  0  0  0  0  0  0  0  0  0  0  0
   -3.1403   -1.4347   -5.1069 C   0  0  0  0  0  0  0  0  0  0  0  0
   -2.5391   -2.6196   -5.2213 O   0  0  0  0  0  0  0  0  0  0  0  0
   -1.6921   -3.0200   -4.1477 C   0  0  0  0  0  0  0  0  0  0  0  0
   -0.8808   -4.2189   -4.6048 C   0  0  0  0  0  0  0  0  0  0  0  0
   -3.8966   -0.9863   -6.2579 C   0  0  0  0  0  0  0  0  0  0  0  0
   -4.0457   -1.8959   -7.4372 C   0  0  0  0  0  0  0  0  0  0  0  0
   -5.1203   -1.4711   -8.3111 N   0  0  0  0  0  0  0  0  0  0  0  0
   -4.4038    0.2075   -6.3064 N   0  0  0  0  0  0  0  0  0  0  0  0
   -5.3162    3.0872   -6.1118 C   0  0  0  0  0  0  0  0  0  0  0  0
   -4.9867    4.3222   -6.5470 C   0  0  0  0  0  0  0  0  0  0  0  0
   -3.7820    5.0280   -6.3092 C   0  0  0  0  0  0  0  0  0  0  0  0
   -2.3451    4.3713   -5.5790 S   0  0  0  0  0  0  0  0  0  0  0  0
   -1.3922    5.7805   -5.9142 C   0  0  0  0  0  0  0  0  0  0  0  0
   -2.1822    6.7374   -6.5771 C   0  0  0  0  0  0  0  0  0  0  0  0
   -3.5171    6.3091   -6.7999 C   0  0  0  0  0  0  0  0  0  0  0  0
   -4.4122    7.0985   -7.4361 N   0  0  0  0  0  0  0  0  0  0  0  0
   -3.9789    8.2716   -7.8142 C   0  0  0  0  0  0  0  0  0  0  0  0
   -4.7832    9.1128   -8.4690 O   0  0  0  0  0  0  0  0  0  0  0  0
   -6.1228    8.6826   -8.6970 C   0  0  0  0  0  0  0  0  0  0  0  0
   -6.9789    8.7727   -7.4413 C   0  0  0  0  0  0  0  0  0  0  0  0
   -2.6285    8.7195   -7.5749 C   0  0  0  0  0  0  0  0  0  0  0  0
   -2.2065   10.0737   -8.0537 C   0  0  0  0  0  0  0  0  0  0  0  0
   -0.9929   10.5220   -7.4021 N   0  0  0  0  0  0  0  0  0  0  0  0
   -1.7589    7.9536   -6.9782 N   0  0  0  0  0  0  0  0  0  0  0  0
   -0.0470    6.0090   -5.5973 C   0  0  0  0  0  0  0  0  0  0  0  0
    0.9043    5.3107   -4.9100 C   0  0  0  0  0  0  0  0  0  0  0  0
    0.9936    4.1006   -4.1994 C   0  0  0  0  0  0  0  0  0  0  0  0
   -0.1350    2.7886   -3.9202 S   0  0  0  0  0  0  0  0  0  0  0  0
    0.9712    1.8910   -2.9145 C   0  0  0  0  0  0  0  0  0  0  0  0
    2.1750    2.6083   -2.8044 C   0  0  0  0  0  0  0  0  0  0  0  0
    2.1971    3.8212   -3.5224 C   0  0  0  0  0  0  0  0  0  0  0  0
    3.2885    4.6184   -3.5170 N   0  0  0  0  0  0  0  0  0  0  0  0
    4.3026    4.2142   -2.7964 C   0  0  0  0  0  0  0  0  0  0  0  0
    5.4198    4.9415   -2.7166 O   0  0  0  0  0  0  0  0  0  0  0  0
    5.4637    6.1489   -3.4717 C   0  0  0  0  0  0  0  0  0  0  0  0
    5.6975    5.8924   -4.9543 C   0  0  0  0  0  0  0  0  0  0  0  0
    4.2693    2.9939   -2.0324 C   0  0  0  0  0  0  0  0  0  0  0  0
    5.4156    2.5938   -1.1461 C   0  0  0  0  0  0  0  0  0  0  0  0
    5.1521    1.4186   -0.3378 N   0  0  0  0  0  0  0  0  0  0  0  0
    3.2254    2.2177   -2.0532 N   0  0  0  0  0  0  0  0  0  0  0  0
    0.8696    0.7053   -2.1635 C   0  0  0  0  0  0  0  0  0  0  0  0
   -0.0482   -0.2658   -1.9233 C   0  0  0  0  0  0  0  0  0  0  0  0
    0.2557   -1.2344   -0.9147 C   0  0  0  0  0  0  0  0  0  0  0  0
   -0.3884   -2.3862   -0.5435 C   0  0  0  0  0  0  0  0  0  0  0  0
    0.2577   -3.1109    0.4961 C   0  0  0  0  0  0  0  0  0  0  0  0
   -0.0573   -4.3690    1.0582 C   0  0  0  0  0  0  0  0  0  0  0  0
   -1.1580   -5.1847    0.5792 C   0  0  0  0  0  0  0  0  0  0  0  0
   -1.4191   -5.3844   -1.1340 S   0  0  0  0  0  0  0  0  0  0  0  0
   -2.6967   -6.5317   -0.9052 C   0  0  0  0  0  0  0  0  0  0  0  0
   -3.4056   -7.1519   -2.0589 C   0  0  0  0  0  0  0  0  0  0  0  0
   -4.0549   -6.1054   -2.9636 C   0  0  0  0  0  0  0  0  0  0  0  0
   -2.9044   -6.7287    0.4251 C   0  0  0  0  0  0  0  0  0  0  0  0
   -4.0764   -7.8001    1.0728 Cl  0  0  0  0  0  0  0  0  0  0  0  0
   -2.0431   -5.9730    1.2657 C   0  0  0  0  0  0  0  0  0  0  0  0
   -2.2631   -6.0068    2.9580 Cl  0  0  0  0  0  0  0  0  0  0  0  0
    0.8091   -4.8568    2.0397 C   0  0  0  0  0  0  0  0  0  0  0  0
    1.9410   -4.1459    2.5066 C   0  0  0  0  0  0  0  0  0  0  0  0
    2.2599   -2.9004    1.9480 C   0  0  0  0  0  0  0  0  0  0  0  0
    3.4522   -2.1693    2.3433 C   0  0  0  0  0  0  0  0  0  0  0  0
    3.3947   -0.4829    2.7693 S   0  0  0  0  0  0  0  0  0  0  0  0
    5.0886   -0.4177    3.1088 C   0  0  0  0  0  0  0  0  0  0  0  0
    5.7400    0.8491    3.5428 C   0  0  0  0  0  0  0  0  0  0  0  0
    6.7595    1.3464    2.5149 C   0  0  0  0  0  0  0  0  0  0  0  0
    5.6543   -1.6376    2.8912 C   0  0  0  0  0  0  0  0  0  0  0  0
    4.7378   -2.6255    2.4450 C   0  0  0  0  0  0  0  0  0  0  0  0
    5.2555   -4.1953    1.9798 Cl  0  0  0  0  0  0  0  0  0  0  0  0
    7.3116   -1.9923    3.1487 Cl  0  0  0  0  0  0  0  0  0  0  0  0
    1.4054   -2.4235    0.9642 C   0  0  0  0  0  0  0  0  0  0  0  0
    1.6808   -0.9607    0.0829 S   0  0  0  0  0  0  0  0  0  0  0  0
    2.6597   -4.8724    3.4988 C   0  0  0  0  0  0  0  0  0  0  0  0
    2.1464   -6.0978    3.7204 C   0  0  0  0  0  0  0  0  0  0  0  0
    0.7352   -6.4309    2.7853 S   0  0  0  0  0  0  0  0  0  0  0  0
    3.7973   -8.3989    9.3435 H   0  0  0  0  0  0  0  0  0  0  0  0
    4.6496   -6.0226    8.7217 H   0  0  0  0  0  0  0  0  0  0  0  0
    7.2044   -1.2132    5.8434 H   0  0  0  0  0  0  0  0  0  0  0  0
    7.9743   -1.3769    7.4312 H   0  0  0  0  0  0  0  0  0  0  0  0
    5.7484    0.6252    6.8030 H   0  0  0  0  0  0  0  0  0  0  0  0
    6.6141    0.4740    8.3311 H   0  0  0  0  0  0  0  0  0  0  0  0
    7.4738    1.0152    6.8884 H   0  0  0  0  0  0  0  0  0  0  0  0
   -4.5727   -8.5296    4.7303 H   0  0  0  0  0  0  0  0  0  0  0  0
   -4.8512   -6.9540    5.4966 H   0  0  0  0  0  0  0  0  0  0  0  0
   -4.7461   -8.0369    7.7455 H   0  0  0  0  0  0  0  0  0  0  0  0
   -6.0122   -8.7616    6.7480 H   0  0  0  0  0  0  0  0  0  0  0  0
   -4.4770   -9.6049    6.9776 H   0  0  0  0  0  0  0  0  0  0  0  0
   -1.1746   -4.5064    4.8809 H   0  0  0  0  0  0  0  0  0  0  0  0
    0.7575   -0.3224    3.5830 H   0  0  0  0  0  0  0  0  0  0  0  0
    2.5429    5.5378    1.6287 H   0  0  0  0  0  0  0  0  0  0  0  0
    2.9278    4.5040    0.2440 H   0  0  0  0  0  0  0  0  0  0  0  0
    4.9453    4.8956    1.6266 H   0  0  0  0  0  0  0  0  0  0  0  0
    4.1206    4.2700    3.0537 H   0  0  0  0  0  0  0  0  0  0  0  0
    4.4960    3.1870    1.7114 H   0  0  0  0  0  0  0  0  0  0  0  0
   -7.6315   -4.9517    1.8174 H   0  0  0  0  0  0  0  0  0  0  0  0
   -6.0748   -5.7950    1.9435 H   0  0  0  0  0  0  0  0  0  0  0  0
   -7.4622   -6.7067    0.0857 H   0  0  0  0  0  0  0  0  0  0  0  0
   -5.9658   -5.9954   -0.5202 H   0  0  0  0  0  0  0  0  0  0  0  0
   -7.4919   -5.1140   -0.6788 H   0  0  0  0  0  0  0  0  0  0  0  0
   -4.2044   -0.6445   -1.4405 H   0  0  0  0  0  0  0  0  0  0  0  0
   -1.0378   -2.1857   -3.8749 H   0  0  0  0  0  0  0  0  0  0  0  0
   -2.3115   -3.2639   -3.2768 H   0  0  0  0  0  0  0  0  0  0  0  0
   -0.2306   -3.9382   -5.4288 H   0  0  0  0  0  0  0  0  0  0  0  0
   -0.2771   -4.5825   -3.7788 H   0  0  0  0  0  0  0  0  0  0  0  0
   -1.5392   -5.0141   -4.9435 H   0  0  0  0  0  0  0  0  0  0  0  0
   -3.0580   -1.9335   -7.9323 H   0  0  0  0  0  0  0  0  0  0  0  0
   -4.2539   -2.9107   -7.0773 H   0  0  0  0  0  0  0  0  0  0  0  0
   -4.9528   -1.7665   -9.2652 H   0  0  0  0  0  0  0  0  0  0  0  0
   -5.1875   -0.4589   -8.2858 H   0  0  0  0  0  0  0  0  0  0  0  0
   -6.1694    2.5863   -6.5496 H   0  0  0  0  0  0  0  0  0  0  0  0
   -5.6532    4.8373   -7.2262 H   0  0  0  0  0  0  0  0  0  0  0  0
   -6.1085    7.6537   -9.0708 H   0  0  0  0  0  0  0  0  0  0  0  0
   -6.4960    9.3554   -9.4725 H   0  0  0  0  0  0  0  0  0  0  0  0
   -6.6055    8.0845   -6.6879 H   0  0  0  0  0  0  0  0  0  0  0  0
   -6.9552    9.7838   -7.0421 H   0  0  0  0  0  0  0  0  0  0  0  0
   -8.0049    8.5105   -7.6828 H   0  0  0  0  0  0  0  0  0  0  0  0
   -2.1221   10.0078   -9.1546 H   0  0  0  0  0  0  0  0  0  0  0  0
   -3.0115   10.7881   -7.8440 H   0  0  0  0  0  0  0  0  0  0  0  0
   -0.4972   11.1918   -7.9777 H   0  0  0  0  0  0  0  0  0  0  0  0
   -0.3920    9.7234   -7.2297 H   0  0  0  0  0  0  0  0  0  0  0  0
    0.2748    6.9728   -5.9764 H   0  0  0  0  0  0  0  0  0  0  0  0
    1.8617    5.8196   -4.8450 H   0  0  0  0  0  0  0  0  0  0  0  0
    6.2944    6.7109   -3.0389 H   0  0  0  0  0  0  0  0  0  0  0  0
    4.5268    6.6963   -3.3262 H   0  0  0  0  0  0  0  0  0  0  0  0
    5.7959    6.8403   -5.4753 H   0  0  0  0  0  0  0  0  0  0  0  0
    4.8584    5.3435   -5.3736 H   0  0  0  0  0  0  0  0  0  0  0  0
    6.6067    5.3132   -5.0963 H   0  0  0  0  0  0  0  0  0  0  0  0
    6.3061    2.4210   -1.7581 H   0  0  0  0  0  0  0  0  0  0  0  0
    5.6453    3.4358   -0.4834 H   0  0  0  0  0  0  0  0  0  0  0  0
    4.2210    1.4958    0.0651 H   0  0  0  0  0  0  0  0  0  0  0  0
    5.1275    0.5937   -0.9285 H   0  0  0  0  0  0  0  0  0  0  0  0
    1.8021    0.5933   -1.6138 H   0  0  0  0  0  0  0  0  0  0  0  0
   -0.9944   -0.3396   -2.4405 H   0  0  0  0  0  0  0  0  0  0  0  0
   -1.2976   -2.7111   -1.0153 H   0  0  0  0  0  0  0  0  0  0  0  0
   -4.1643   -7.8319   -1.6669 H   0  0  0  0  0  0  0  0  0  0  0  0
   -2.6944   -7.7387   -2.6468 H   0  0  0  0  0  0  0  0  0  0  0  0
   -4.7513   -5.4885   -2.4007 H   0  0  0  0  0  0  0  0  0  0  0  0
   -4.5983   -6.5940   -3.7680 H   0  0  0  0  0  0  0  0  0  0  0  0
   -3.2956   -5.4603   -3.3957 H   0  0  0  0  0  0  0  0  0  0  0  0
    4.9660    1.6023    3.6947 H   0  0  0  0  0  0  0  0  0  0  0  0
    6.2476    0.6816    4.4949 H   0  0  0  0  0  0  0  0  0  0  0  0
    6.3057    1.4156    1.5281 H   0  0  0  0  0  0  0  0  0  0  0  0
    7.6020    0.6636    2.4588 H   0  0  0  0  0  0  0  0  0  0  0  0
    7.1281    2.3250    2.8109 H   0  0  0  0  0  0  0  0  0  0  0  0
    3.5124   -4.4807    4.0217 H   0  0  0  0  0  0  0  0  0  0  0  0
    2.5005   -6.8471    4.4002 H   0  0  0  0  0  0  0  0  0  0  0  0
  1  2  2  0  0  0  0
  2  3  1  0  0  0  0
  3  4  2  0  0  0  0
  4  5  1  0  0  0  0
  5  6  1  0  0  0  0
  6  7  1  0  0  0  0
  7  8  1  0  0  0  0
  8  9  1  0  0  0  0
  7 10  2  0  0  0  0
 10 11  1  0  0  0  0
 10 12  1  0  0  0  0
 12 13  1  0  0  0  0
  4 14  1  0  0  0  0
 14 15  2  0  0  0  0
 15 16  1  0  0  0  0
 16 17  1  0  0  0  0
 17 18  1  0  0  0  0
 18 19  1  0  0  0  0
 19 20  1  0  0  0  0
 20 21  1  0  0  0  0
 19 22  2  0  0  0  0
 22 23  1  0  0  0  0
 23 24  1  0  0  0  0
 22 25  1  0  0  0  0
 16 26  2  0  0  0  0
 26 27  1  0  0  0  0
 15 28  1  0  0  0  0
 28 29  2  0  0  0  0
 29 30  1  0  0  0  0
 29 31  1  0  0  0  0
 31 32  2  0  0  0  0
 32 33  1  0  0  0  0
 33 34  2  0  0  0  0
 34 35  1  0  0  0  0
 35 36  1  0  0  0  0
 36 37  1  0  0  0  0
 37 38  1  0  0  0  0
 38 39  1  0  0  0  0
 37 40  2  0  0  0  0
 40 41  1  0  0  0  0
 40 42  1  0  0  0  0
 42 43  1  0  0  0  0
 34 44  1  0  0  0  0
 44 45  2  0  0  0  0
 45 46  1  0  0  0  0
 46 47  1  0  0  0  0
 47 48  1  0  0  0  0
 48 49  1  0  0  0  0
 49 50  1  0  0  0  0
 50 51  1  0  0  0  0
 49 52  2  0  0  0  0
 52 53  1  0  0  0  0
 53 54  1  0  0  0  0
 52 55  1  0  0  0  0
 46 56  2  0  0  0  0
 56 57  1  0  0  0  0
 45 58  1  0  0  0  0
 58 59  2  0  0  0  0
 59 60  1  0  0  0  0
 59 61  1  0  0  0  0
 61 62  1  0  0  0  0
 62 63  1  0  0  0  0
 63 64  2  0  0  0  0
 64 65  1  0  0  0  0
 65 66  1  0  0  0  0
 66 67  2  0  0  0  0
 67 68  1  0  0  0  0
 68 69  1  0  0  0  0
 69 70  1  0  0  0  0
 67 71  1  0  0  0  0
 71 72  1  0  0  0  0
 72 73  1  0  0  0  0
 71 74  2  0  0  0  0
 63 75  1  0  0  0  0
 75 76  2  0  0  0  0
 76 77  1  0  0  0  0
 77 78  1  0  0  0  0
 78 79  1  0  0  0  0
 79 80  2  0  0  0  0
 80 81  1  0  0  0  0
 81 82  1  0  0  0  0
 82 83  2  0  0  0  0
 83 84  1  0  0  0  0
 84 85  1  0  0  0  0
 85 86  1  0  0  0  0
 83 87  1  0  0  0  0
 87 88  1  0  0  0  0
 88 89  1  0  0  0  0
 87 90  2  0  0  0  0
 79 91  1  0  0  0  0
 91 92  2  0  0  0  0
 92 93  1  0  0  0  0
 93 94  1  0  0  0  0
 94 95  1  0  0  0  0
 95 96  2  0  0  0  0
 96 97  1  0  0  0  0
 97 98  1  0  0  0  0
 98 99  2  0  0  0  0
 99100  1  0  0  0  0
100101  1  0  0  0  0
101102  1  0  0  0  0
 99103  1  0  0  0  0
103104  1  0  0  0  0
104105  1  0  0  0  0
103106  2  0  0  0  0
 95107  1  0  0  0  0
107108  2  0  0  0  0
108109  1  0  0  0  0
109110  2  0  0  0  0
110111  1  0  0  0  0
111112  2  0  0  0  0
112113  1  0  0  0  0
113114  1  0  0  0  0
114115  1  0  0  0  0
115116  1  0  0  0  0
116117  1  0  0  0  0
115118  2  0  0  0  0
118119  1  0  0  0  0
118120  1  0  0  0  0
120121  1  0  0  0  0
112122  1  0  0  0  0
122123  2  0  0  0  0
123124  1  0  0  0  0
124125  1  0  0  0  0
125126  1  0  0  0  0
126127  1  0  0  0  0
127128  1  0  0  0  0
128129  1  0  0  0  0
127130  2  0  0  0  0
130131  1  0  0  0  0
131132  1  0  0  0  0
130133  1  0  0  0  0
124134  2  0  0  0  0
134135  1  0  0  0  0
123136  1  0  0  0  0
136137  2  0  0  0  0
137138  1  0  0  0  0
 27  1  1  0  0  0  0
 57 31  1  0  0  0  0
 65 61  2  0  0  0  0
 81 77  2  0  0  0  0
 97 93  2  0  0  0  0
135109  1  0  0  0  0
 26  3  1  0  0  0  0
 56 33  1  0  0  0  0
 74 64  1  0  0  0  0
 90 80  1  0  0  0  0
106 96  1  0  0  0  0
134111  1  0  0  0  0
 12  5  2  0  0  0  0
 30 14  1  0  0  0  0
 42 35  2  0  0  0  0
 60 44  1  0  0  0  0
120113  2  0  0  0  0
138122  1  0  0  0  0
 23 17  2  0  0  0  0
 53 47  2  0  0  0  0
131125  2  0  0  0  0
  1139  1  0  0  0  0
  2140  1  0  0  0  0
  8141  1  0  0  0  0
  8142  1  0  0  0  0
  9143  1  0  0  0  0
  9144  1  0  0  0  0
  9145  1  0  0  0  0
 20146  1  0  0  0  0
 20147  1  0  0  0  0
 21148  1  0  0  0  0
 21149  1  0  0  0  0
 21150  1  0  0  0  0
 28151  1  0  0  0  0
 32152  1  0  0  0  0
 38153  1  0  0  0  0
 38154  1  0  0  0  0
 39155  1  0  0  0  0
 39156  1  0  0  0  0
 39157  1  0  0  0  0
 50158  1  0  0  0  0
 50159  1  0  0  0  0
 51160  1  0  0  0  0
 51161  1  0  0  0  0
 51162  1  0  0  0  0
 58163  1  0  0  0  0
 69164  1  0  0  0  0
 69165  1  0  0  0  0
 70166  1  0  0  0  0
 70167  1  0  0  0  0
 70168  1  0  0  0  0
 72169  1  0  0  0  0
 72170  1  0  0  0  0
 73171  1  0  0  0  0
 73172  1  0  0  0  0
 75173  1  0  0  0  0
 76174  1  0  0  0  0
 85175  1  0  0  0  0
 85176  1  0  0  0  0
 86177  1  0  0  0  0
 86178  1  0  0  0  0
 86179  1  0  0  0  0
 88180  1  0  0  0  0
 88181  1  0  0  0  0
 89182  1  0  0  0  0
 89183  1  0  0  0  0
 91184  1  0  0  0  0
 92185  1  0  0  0  0
101186  1  0  0  0  0
101187  1  0  0  0  0
102188  1  0  0  0  0
102189  1  0  0  0  0
102190  1  0  0  0  0
104191  1  0  0  0  0
104192  1  0  0  0  0
105193  1  0  0  0  0
105194  1  0  0  0  0
107195  1  0  0  0  0
108196  1  0  0  0  0
110197  1  0  0  0  0
116198  1  0  0  0  0
116199  1  0  0  0  0
117200  1  0  0  0  0
117201  1  0  0  0  0
117202  1  0  0  0  0
128203  1  0  0  0  0
128204  1  0  0  0  0
129205  1  0  0  0  0
129206  1  0  0  0  0
129207  1  0  0  0  0
136208  1  0  0  0  0
137209  1  0  0  0  0
M  END
