
  xtb     03022215333D
 energy: -468.741867124185 gnorm: 0.000443513661 xtb: 6.4.1 (unknown)
239265  0     0  0            999 V2000
    2.8948   -7.3659    7.7098 C   0  0  0  0  0  0  0  0  0  0  0  0
    3.0546   -6.0750    8.0659 C   0  0  0  0  0  0  0  0  0  0  0  0
    2.5345   -5.1671    7.0985 C   0  0  0  0  0  0  0  0  0  0  0  0
    2.5722   -3.7637    7.1194 C   0  0  0  0  0  0  0  0  0  0  0  0
    3.2976   -3.0374    8.1489 C   0  0  0  0  0  0  0  0  0  0  0  0
    2.5702   -1.7406    9.0495 S   0  0  0  0  0  0  0  0  0  0  0  0
    4.0263   -1.4271    9.9303 C   0  0  0  0  0  0  0  0  0  0  0  0
    4.1053   -0.3052   10.9054 C   0  0  0  0  0  0  0  0  0  0  0  0
    4.3123    1.0276   10.1813 C   0  0  0  0  0  0  0  0  0  0  0  0
    5.0119   -2.2798    9.5330 C   0  0  0  0  0  0  0  0  0  0  0  0
    6.6048   -2.2690   10.1719 Cl  0  0  0  0  0  0  0  0  0  0  0  0
    4.6023   -3.1961    8.5267 C   0  0  0  0  0  0  0  0  0  0  0  0
    5.6840   -4.3206    7.8112 Cl  0  0  0  0  0  0  0  0  0  0  0  0
    1.9205   -3.1028    6.0863 C   0  0  0  0  0  0  0  0  0  0  0  0
    1.3123   -3.7850    5.0061 C   0  0  0  0  0  0  0  0  0  0  0  0
    1.3385   -5.1894    4.9429 C   0  0  0  0  0  0  0  0  0  0  0  0
    0.8375   -5.8897    3.7715 C   0  0  0  0  0  0  0  0  0  0  0  0
    1.4100   -5.4166    2.1970 S   0  0  0  0  0  0  0  0  0  0  0  0
    0.5129   -6.6566    1.3996 C   0  0  0  0  0  0  0  0  0  0  0  0
    0.6179   -6.8679   -0.0707 C   0  0  0  0  0  0  0  0  0  0  0  0
    1.7077   -7.8910   -0.3979 C   0  0  0  0  0  0  0  0  0  0  0  0
   -0.1876   -7.3877    2.3122 C   0  0  0  0  0  0  0  0  0  0  0  0
   -0.0086   -6.9586    3.6554 C   0  0  0  0  0  0  0  0  0  0  0  0
   -0.8488   -7.6964    4.9541 Cl  0  0  0  0  0  0  0  0  0  0  0  0
   -1.1987   -8.7090    1.8953 Cl  0  0  0  0  0  0  0  0  0  0  0  0
    1.9322   -5.8500    6.0129 C   0  0  0  0  0  0  0  0  0  0  0  0
    2.0934   -7.5725    6.1930 S   0  0  0  0  0  0  0  0  0  0  0  0
    0.7000   -2.8865    4.1010 C   0  0  0  0  0  0  0  0  0  0  0  0
    0.8309   -1.5775    4.4521 C   0  0  0  0  0  0  0  0  0  0  0  0
    1.7630   -1.3756    5.9188 S   0  0  0  0  0  0  0  0  0  0  0  0
    0.2644   -0.4619    3.7706 C   0  0  0  0  0  0  0  0  0  0  0  0
    0.4518    0.8688    3.9994 C   0  0  0  0  0  0  0  0  0  0  0  0
   -0.2678    1.7041    3.1082 C   0  0  0  0  0  0  0  0  0  0  0  0
   -0.2489    3.1120    3.0122 C   0  0  0  0  0  0  0  0  0  0  0  0
    0.5499    3.9269    3.9083 C   0  0  0  0  0  0  0  0  0  0  0  0
    2.2159    3.5591    4.2557 S   0  0  0  0  0  0  0  0  0  0  0  0
    2.3853    4.9169    5.3138 C   0  0  0  0  0  0  0  0  0  0  0  0
    3.6550    5.1583    6.0520 C   0  0  0  0  0  0  0  0  0  0  0  0
    3.7854    4.2009    7.2394 C   0  0  0  0  0  0  0  0  0  0  0  0
    1.2118    5.6051    5.3862 C   0  0  0  0  0  0  0  0  0  0  0  0
    0.9829    7.0093    6.3455 Cl  0  0  0  0  0  0  0  0  0  0  0  0
    0.1734    5.0544    4.5870 C   0  0  0  0  0  0  0  0  0  0  0  0
   -1.4102    5.7081    4.5722 Cl  0  0  0  0  0  0  0  0  0  0  0  0
   -0.9928    3.6799    1.9811 C   0  0  0  0  0  0  0  0  0  0  0  0
   -1.8417    2.9081    1.1552 C   0  0  0  0  0  0  0  0  0  0  0  0
   -1.9260    1.5125    1.2971 C   0  0  0  0  0  0  0  0  0  0  0  0
   -2.8329    0.7576    0.4548 C   0  0  0  0  0  0  0  0  0  0  0  0
   -2.3228   -0.6337   -0.4522 S   0  0  0  0  0  0  0  0  0  0  0  0
   -3.8751   -0.8222   -1.1891 C   0  0  0  0  0  0  0  0  0  0  0  0
   -4.1700   -1.9367   -2.1307 C   0  0  0  0  0  0  0  0  0  0  0  0
   -4.8804   -3.0854   -1.4111 C   0  0  0  0  0  0  0  0  0  0  0  0
   -4.7350    0.1332   -0.7335 C   0  0  0  0  0  0  0  0  0  0  0  0
   -4.1508    1.0306    0.1962 C   0  0  0  0  0  0  0  0  0  0  0  0
   -5.0518    2.2716    0.9661 Cl  0  0  0  0  0  0  0  0  0  0  0  0
   -6.3658    0.2664   -1.2468 Cl  0  0  0  0  0  0  0  0  0  0  0  0
   -1.0700    0.9393    2.2230 C   0  0  0  0  0  0  0  0  0  0  0  0
   -0.8527   -0.7645    2.4587 S   0  0  0  0  0  0  0  0  0  0  0  0
   -2.3803    3.6586    0.0930 C   0  0  0  0  0  0  0  0  0  0  0  0
   -1.9300    4.9462    0.0327 C   0  0  0  0  0  0  0  0  0  0  0  0
   -0.8948    5.3283    1.3962 S   0  0  0  0  0  0  0  0  0  0  0  0
   -2.0417    5.7175   -1.1640 C   0  0  0  0  0  0  0  0  0  0  0  0
   -1.2010    6.6589   -1.6876 C   0  0  0  0  0  0  0  0  0  0  0  0
   -1.2421    6.7232   -3.1085 C   0  0  0  0  0  0  0  0  0  0  0  0
   -0.2859    7.3111   -3.9679 C   0  0  0  0  0  0  0  0  0  0  0  0
    0.6108    8.3309   -3.4660 C   0  0  0  0  0  0  0  0  0  0  0  0
    2.3094    8.3574   -3.8403 S   0  0  0  0  0  0  0  0  0  0  0  0
    2.5730    9.8005   -2.9208 C   0  0  0  0  0  0  0  0  0  0  0  0
    3.9160   10.4403   -2.8711 C   0  0  0  0  0  0  0  0  0  0  0  0
    4.1651   11.2763   -4.1288 C   0  0  0  0  0  0  0  0  0  0  0  0
    1.4032   10.2325   -2.3710 C   0  0  0  0  0  0  0  0  0  0  0  0
    1.2616   11.6452   -1.4071 Cl  0  0  0  0  0  0  0  0  0  0  0  0
    0.2918    9.4001   -2.6693 C   0  0  0  0  0  0  0  0  0  0  0  0
   -1.2966    9.7746   -2.1406 Cl  0  0  0  0  0  0  0  0  0  0  0  0
   -0.1812    6.7778   -5.2500 C   0  0  0  0  0  0  0  0  0  0  0  0
   -1.0597    5.7741   -5.7330 C   0  0  0  0  0  0  0  0  0  0  0  0
   -2.0818    5.2681   -4.9144 C   0  0  0  0  0  0  0  0  0  0  0  0
   -2.6834    3.9670   -5.2152 C   0  0  0  0  0  0  0  0  0  0  0  0
   -3.9036    3.6442   -6.4005 S   0  0  0  0  0  0  0  0  0  0  0  0
   -3.8557    1.9374   -6.1016 C   0  0  0  0  0  0  0  0  0  0  0  0
   -4.6984    0.9806   -6.8718 C   0  0  0  0  0  0  0  0  0  0  0  0
   -3.8810    0.2819   -7.9613 C   0  0  0  0  0  0  0  0  0  0  0  0
   -2.9305    1.6506   -5.1429 C   0  0  0  0  0  0  0  0  0  0  0  0
   -2.2619    2.7972   -4.6424 C   0  0  0  0  0  0  0  0  0  0  0  0
   -1.0065    2.6852   -3.4712 Cl  0  0  0  0  0  0  0  0  0  0  0  0
   -2.5771    0.0683   -4.5725 Cl  0  0  0  0  0  0  0  0  0  0  0  0
   -2.1579    5.7778   -3.6331 C   0  0  0  0  0  0  0  0  0  0  0  0
   -3.1206    5.0508   -2.3857 S   0  0  0  0  0  0  0  0  0  0  0  0
   -0.5717    5.1293   -6.8846 C   0  0  0  0  0  0  0  0  0  0  0  0
    0.7031    5.5115   -7.2153 C   0  0  0  0  0  0  0  0  0  0  0  0
    1.2106    6.9296   -6.3071 S   0  0  0  0  0  0  0  0  0  0  0  0
    1.6626    4.6215   -7.7582 C   0  0  0  0  0  0  0  0  0  0  0  0
    1.1600    2.9789   -8.0918 S   0  0  0  0  0  0  0  0  0  0  0  0
    2.6613    2.2998   -7.5031 C   0  0  0  0  0  0  0  0  0  0  0  0
    3.5908    3.3301   -7.3278 C   0  0  0  0  0  0  0  0  0  0  0  0
    3.0258    4.6369   -7.4697 C   0  0  0  0  0  0  0  0  0  0  0  0
    3.7321    5.7452   -7.1676 N   0  0  0  0  0  0  0  0  0  0  0  0
    4.9640    5.5644   -6.7738 C   0  0  0  0  0  0  0  0  0  0  0  0
    5.7284    6.5991   -6.4351 O   0  0  0  0  0  0  0  0  0  0  0  0
    5.1264    7.8931   -6.4626 C   0  0  0  0  0  0  0  0  0  0  0  0
    4.9866    8.4384   -7.8765 C   0  0  0  0  0  0  0  0  0  0  0  0
    5.5608    4.2493   -6.6797 C   0  0  0  0  0  0  0  0  0  0  0  0
    7.0046    4.1217   -6.3090 C   0  0  0  0  0  0  0  0  0  0  0  0
    7.3374    2.7797   -5.8805 N   0  0  0  0  0  0  0  0  0  0  0  0
    4.8737    3.1749   -6.9390 N   0  0  0  0  0  0  0  0  0  0  0  0
    2.6498    1.0455   -6.8563 C   0  0  0  0  0  0  0  0  0  0  0  0
    1.6037    0.1781   -6.8856 C   0  0  0  0  0  0  0  0  0  0  0  0
    1.2699   -0.7139   -5.8304 C   0  0  0  0  0  0  0  0  0  0  0  0
    0.3495   -1.7281   -5.8374 C   0  0  0  0  0  0  0  0  0  0  0  0
    0.0682   -2.2552   -4.5557 C   0  0  0  0  0  0  0  0  0  0  0  0
   -0.7978   -3.3119   -4.2142 C   0  0  0  0  0  0  0  0  0  0  0  0
   -1.6186   -3.9734   -5.2140 C   0  0  0  0  0  0  0  0  0  0  0  0
   -2.6646   -3.0423   -6.2469 S   0  0  0  0  0  0  0  0  0  0  0  0
   -3.3091   -4.4580   -7.0064 C   0  0  0  0  0  0  0  0  0  0  0  0
   -4.3048   -4.3483   -8.1076 C   0  0  0  0  0  0  0  0  0  0  0  0
   -3.6396   -3.8876   -9.4063 C   0  0  0  0  0  0  0  0  0  0  0  0
   -2.7340   -5.5767   -6.4833 C   0  0  0  0  0  0  0  0  0  0  0  0
   -3.1097   -7.1749   -6.9850 Cl  0  0  0  0  0  0  0  0  0  0  0  0
   -1.7828   -5.3069   -5.4615 C   0  0  0  0  0  0  0  0  0  0  0  0
   -0.8842   -6.5464   -4.6924 Cl  0  0  0  0  0  0  0  0  0  0  0  0
   -0.9007   -3.6353   -2.8671 C   0  0  0  0  0  0  0  0  0  0  0  0
   -0.2559   -2.8909   -1.8479 C   0  0  0  0  0  0  0  0  0  0  0  0
    0.6022   -1.8299   -2.1844 C   0  0  0  0  0  0  0  0  0  0  0  0
    1.1960   -0.9879   -1.1595 C   0  0  0  0  0  0  0  0  0  0  0  0
    0.9850    0.7389   -1.2186 S   0  0  0  0  0  0  0  0  0  0  0  0
    1.8684    0.9777    0.2470 C   0  0  0  0  0  0  0  0  0  0  0  0
    2.1650    2.3454    0.7511 C   0  0  0  0  0  0  0  0  0  0  0  0
    3.4344    2.9005    0.1014 C   0  0  0  0  0  0  0  0  0  0  0  0
    2.2911   -0.2181    0.7456 C   0  0  0  0  0  0  0  0  0  0  0  0
    1.9084   -1.3343   -0.0457 C   0  0  0  0  0  0  0  0  0  0  0  0
    2.3982   -2.9345    0.3339 Cl  0  0  0  0  0  0  0  0  0  0  0  0
    3.1993   -0.3832    2.1925 Cl  0  0  0  0  0  0  0  0  0  0  0  0
    0.7773   -1.5701   -3.5365 C   0  0  0  0  0  0  0  0  0  0  0  0
    1.8398   -0.3673   -4.2030 S   0  0  0  0  0  0  0  0  0  0  0  0
   -0.6711   -3.2965   -0.5580 C   0  0  0  0  0  0  0  0  0  0  0  0
   -1.5661   -4.3239   -0.5690 C   0  0  0  0  0  0  0  0  0  0  0  0
   -1.9388   -4.8635   -2.1913 S   0  0  0  0  0  0  0  0  0  0  0  0
   -2.1828   -4.9156    0.5707 C   0  0  0  0  0  0  0  0  0  0  0  0
   -2.9863   -6.0124    0.6515 C   0  0  0  0  0  0  0  0  0  0  0  0
   -3.4192   -6.2985    1.9723 C   0  0  0  0  0  0  0  0  0  0  0  0
   -4.1946   -7.3812    2.4202 C   0  0  0  0  0  0  0  0  0  0  0  0
   -4.7313   -8.3541    1.4850 C   0  0  0  0  0  0  0  0  0  0  0  0
   -5.6271   -7.8322    0.0860 S   0  0  0  0  0  0  0  0  0  0  0  0
   -5.9045   -9.4553   -0.4449 C   0  0  0  0  0  0  0  0  0  0  0  0
   -6.6258   -9.7343   -1.7169 C   0  0  0  0  0  0  0  0  0  0  0  0
   -5.7182   -9.4892   -2.9248 C   0  0  0  0  0  0  0  0  0  0  0  0
   -5.3241  -10.3371    0.4161 C   0  0  0  0  0  0  0  0  0  0  0  0
   -5.3740  -12.0409    0.2197 Cl  0  0  0  0  0  0  0  0  0  0  0  0
   -4.6650   -9.7199    1.5147 C   0  0  0  0  0  0  0  0  0  0  0  0
   -3.8083  -10.6320    2.6834 Cl  0  0  0  0  0  0  0  0  0  0  0  0
   -4.4284   -7.4627    3.7894 C   0  0  0  0  0  0  0  0  0  0  0  0
   -3.9170   -6.5253    4.7198 C   0  0  0  0  0  0  0  0  0  0  0  0
   -3.1388   -5.4454    4.2746 C   0  0  0  0  0  0  0  0  0  0  0  0
   -2.5814   -4.4621    5.1898 C   0  0  0  0  0  0  0  0  0  0  0  0
   -1.6358   -4.9384    6.5705 S   0  0  0  0  0  0  0  0  0  0  0  0
   -1.3676   -3.3019    7.0568 C   0  0  0  0  0  0  0  0  0  0  0  0
   -0.6394   -2.9766    8.3128 C   0  0  0  0  0  0  0  0  0  0  0  0
   -1.6042   -2.8910    9.4973 C   0  0  0  0  0  0  0  0  0  0  0  0
   -1.9771   -2.4463    6.1893 C   0  0  0  0  0  0  0  0  0  0  0  0
   -2.6656   -3.0975    5.1314 C   0  0  0  0  0  0  0  0  0  0  0  0
   -3.5970   -2.2287    3.9846 Cl  0  0  0  0  0  0  0  0  0  0  0  0
   -1.9277   -0.7365    6.3393 Cl  0  0  0  0  0  0  0  0  0  0  0  0
   -2.9125   -5.3633    2.9066 C   0  0  0  0  0  0  0  0  0  0  0  0
   -1.9358   -4.1594    2.1275 S   0  0  0  0  0  0  0  0  0  0  0  0
   -4.3432   -6.8168    6.0475 C   0  0  0  0  0  0  0  0  0  0  0  0
   -5.1386   -7.9040    6.1145 C   0  0  0  0  0  0  0  0  0  0  0  0
   -5.4198   -8.6518    4.5834 S   0  0  0  0  0  0  0  0  0  0  0  0
    3.1953   -8.2399    8.2537 H   0  0  0  0  0  0  0  0  0  0  0  0
    3.5131   -5.7621    8.9858 H   0  0  0  0  0  0  0  0  0  0  0  0
    3.1823   -0.2620   11.4863 H   0  0  0  0  0  0  0  0  0  0  0  0
    4.9392   -0.4890   11.5849 H   0  0  0  0  0  0  0  0  0  0  0  0
    3.4855    1.2192    9.5015 H   0  0  0  0  0  0  0  0  0  0  0  0
    5.2353    1.0051    9.6075 H   0  0  0  0  0  0  0  0  0  0  0  0
    4.3691    1.8392   10.9013 H   0  0  0  0  0  0  0  0  0  0  0  0
   -0.3423   -7.2272   -0.4470 H   0  0  0  0  0  0  0  0  0  0  0  0
    0.8530   -5.9189   -0.5556 H   0  0  0  0  0  0  0  0  0  0  0  0
    1.4809   -8.8457    0.0696 H   0  0  0  0  0  0  0  0  0  0  0  0
    2.6723   -7.5450   -0.0341 H   0  0  0  0  0  0  0  0  0  0  0  0
    1.7708   -8.0344   -1.4732 H   0  0  0  0  0  0  0  0  0  0  0  0
    0.1609   -3.1948    3.2259 H   0  0  0  0  0  0  0  0  0  0  0  0
    1.0954    1.2278    4.7817 H   0  0  0  0  0  0  0  0  0  0  0  0
    4.5019    5.0149    5.3779 H   0  0  0  0  0  0  0  0  0  0  0  0
    3.6608    6.1900    6.4072 H   0  0  0  0  0  0  0  0  0  0  0  0
    2.9527    4.3353    7.9253 H   0  0  0  0  0  0  0  0  0  0  0  0
    3.7890    3.1697    6.8936 H   0  0  0  0  0  0  0  0  0  0  0  0
    4.7114    4.3927    7.7744 H   0  0  0  0  0  0  0  0  0  0  0  0
   -3.2374   -2.2906   -2.5714 H   0  0  0  0  0  0  0  0  0  0  0  0
   -4.8091   -1.5620   -2.9334 H   0  0  0  0  0  0  0  0  0  0  0  0
   -5.0288   -3.9194   -2.0916 H   0  0  0  0  0  0  0  0  0  0  0  0
   -5.8482   -2.7567   -1.0425 H   0  0  0  0  0  0  0  0  0  0  0  0
   -4.2892   -3.4287   -0.5658 H   0  0  0  0  0  0  0  0  0  0  0  0
   -2.9908    3.2232   -0.6755 H   0  0  0  0  0  0  0  0  0  0  0  0
   -0.4713    7.1772   -1.0911 H   0  0  0  0  0  0  0  0  0  0  0  0
    3.9684   11.0796   -1.9884 H   0  0  0  0  0  0  0  0  0  0  0  0
    4.6825    9.6674   -2.7913 H   0  0  0  0  0  0  0  0  0  0  0  0
    4.0991   10.6498   -5.0155 H   0  0  0  0  0  0  0  0  0  0  0  0
    5.1531   11.7270   -4.0889 H   0  0  0  0  0  0  0  0  0  0  0  0
    3.4245   12.0680   -4.2062 H   0  0  0  0  0  0  0  0  0  0  0  0
   -5.5329    1.5181   -7.3234 H   0  0  0  0  0  0  0  0  0  0  0  0
   -5.0941    0.2289   -6.1853 H   0  0  0  0  0  0  0  0  0  0  0  0
   -4.5151   -0.4016   -8.5195 H   0  0  0  0  0  0  0  0  0  0  0  0
   -3.4645    1.0128   -8.6500 H   0  0  0  0  0  0  0  0  0  0  0  0
   -3.0680   -0.2834   -7.5131 H   0  0  0  0  0  0  0  0  0  0  0  0
   -1.0632    4.2873   -7.3378 H   0  0  0  0  0  0  0  0  0  0  0  0
    4.1441    7.8383   -5.9822 H   0  0  0  0  0  0  0  0  0  0  0  0
    5.8013    8.5148   -5.8697 H   0  0  0  0  0  0  0  0  0  0  0  0
    5.9504    8.4377   -8.3800 H   0  0  0  0  0  0  0  0  0  0  0  0
    4.2871    7.8277   -8.4400 H   0  0  0  0  0  0  0  0  0  0  0  0
    4.6094    9.4560   -7.8347 H   0  0  0  0  0  0  0  0  0  0  0  0
    7.5852    4.4656   -7.1852 H   0  0  0  0  0  0  0  0  0  0  0  0
    7.2216    4.8242   -5.4953 H   0  0  0  0  0  0  0  0  0  0  0  0
    8.3175    2.5788   -6.0359 H   0  0  0  0  0  0  0  0  0  0  0  0
    6.7754    2.1113   -6.3964 H   0  0  0  0  0  0  0  0  0  0  0  0
    3.4668    0.8856   -6.1638 H   0  0  0  0  0  0  0  0  0  0  0  0
    0.8731    0.2581   -7.6819 H   0  0  0  0  0  0  0  0  0  0  0  0
   -0.1074   -2.0863   -6.7421 H   0  0  0  0  0  0  0  0  0  0  0  0
   -4.7684   -5.3247   -8.2561 H   0  0  0  0  0  0  0  0  0  0  0  0
   -5.0800   -3.6327   -7.8257 H   0  0  0  0  0  0  0  0  0  0  0  0
   -2.8745   -4.5976   -9.7103 H   0  0  0  0  0  0  0  0  0  0  0  0
   -3.1757   -2.9137   -9.2671 H   0  0  0  0  0  0  0  0  0  0  0  0
   -4.3788   -3.8131  -10.1992 H   0  0  0  0  0  0  0  0  0  0  0  0
    1.3252    3.0051    0.5270 H   0  0  0  0  0  0  0  0  0  0  0  0
    2.3012    2.3019    1.8332 H   0  0  0  0  0  0  0  0  0  0  0  0
    3.6368    3.8989    0.4792 H   0  0  0  0  0  0  0  0  0  0  0  0
    3.3158    2.9506   -0.9785 H   0  0  0  0  0  0  0  0  0  0  0  0
    4.2834    2.2615    0.3291 H   0  0  0  0  0  0  0  0  0  0  0  0
   -0.3395   -2.8304    0.3506 H   0  0  0  0  0  0  0  0  0  0  0  0
   -3.2440   -6.6041   -0.2080 H   0  0  0  0  0  0  0  0  0  0  0  0
   -7.5033   -9.0884   -1.7870 H   0  0  0  0  0  0  0  0  0  0  0  0
   -6.9563  -10.7741   -1.7088 H   0  0  0  0  0  0  0  0  0  0  0  0
   -6.2557   -9.7010   -3.8452 H   0  0  0  0  0  0  0  0  0  0  0  0
   -4.8438  -10.1332   -2.8764 H   0  0  0  0  0  0  0  0  0  0  0  0
   -5.3866   -8.4535   -2.9441 H   0  0  0  0  0  0  0  0  0  0  0  0
    0.1090   -3.7459    8.5088 H   0  0  0  0  0  0  0  0  0  0  0  0
   -0.1321   -2.0178    8.1907 H   0  0  0  0  0  0  0  0  0  0  0  0
   -2.3523   -2.1230    9.3188 H   0  0  0  0  0  0  0  0  0  0  0  0
   -1.0566   -2.6418   10.4019 H   0  0  0  0  0  0  0  0  0  0  0  0
   -2.1095   -3.8426    9.6442 H   0  0  0  0  0  0  0  0  0  0  0  0
   -4.0649   -6.2275    6.9015 H   0  0  0  0  0  0  0  0  0  0  0  0
   -5.5927   -8.3346    6.9855 H   0  0  0  0  0  0  0  0  0  0  0  0
  1  2  2  0  0  0  0
  2  3  1  0  0  0  0
  3  4  2  0  0  0  0
  4  5  1  0  0  0  0
  5  6  1  0  0  0  0
  6  7  1  0  0  0  0
  7  8  1  0  0  0  0
  8  9  1  0  0  0  0
  7 10  2  0  0  0  0
 10 11  1  0  0  0  0
 10 12  1  0  0  0  0
 12 13  1  0  0  0  0
  4 14  1  0  0  0  0
 14 15  2  0  0  0  0
 15 16  1  0  0  0  0
 16 17  1  0  0  0  0
 17 18  1  0  0  0  0
 18 19  1  0  0  0  0
 19 20  1  0  0  0  0
 20 21  1  0  0  0  0
 19 22  2  0  0  0  0
 22 23  1  0  0  0  0
 23 24  1  0  0  0  0
 22 25  1  0  0  0  0
 16 26  2  0  0  0  0
 26 27  1  0  0  0  0
 15 28  1  0  0  0  0
 28 29  2  0  0  0  0
 29 30  1  0  0  0  0
 29 31  1  0  0  0  0
 31 32  2  0  0  0  0
 32 33  1  0  0  0  0
 33 34  2  0  0  0  0
 34 35  1  0  0  0  0
 35 36  1  0  0  0  0
 36 37  1  0  0  0  0
 37 38  1  0  0  0  0
 38 39  1  0  0  0  0
 37 40  2  0  0  0  0
 40 41  1  0  0  0  0
 40 42  1  0  0  0  0
 42 43  1  0  0  0  0
 34 44  1  0  0  0  0
 44 45  2  0  0  0  0
 45 46  1  0  0  0  0
 46 47  1  0  0  0  0
 47 48  1  0  0  0  0
 48 49  1  0  0  0  0
 49 50  1  0  0  0  0
 50 51  1  0  0  0  0
 49 52  2  0  0  0  0
 52 53  1  0  0  0  0
 53 54  1  0  0  0  0
 52 55  1  0  0  0  0
 46 56  2  0  0  0  0
 56 57  1  0  0  0  0
 45 58  1  0  0  0  0
 58 59  2  0  0  0  0
 59 60  1  0  0  0  0
 59 61  1  0  0  0  0
 61 62  2  0  0  0  0
 62 63  1  0  0  0  0
 63 64  2  0  0  0  0
 64 65  1  0  0  0  0
 65 66  1  0  0  0  0
 66 67  1  0  0  0  0
 67 68  1  0  0  0  0
 68 69  1  0  0  0  0
 67 70  2  0  0  0  0
 70 71  1  0  0  0  0
 70 72  1  0  0  0  0
 72 73  1  0  0  0  0
 64 74  1  0  0  0  0
 74 75  2  0  0  0  0
 75 76  1  0  0  0  0
 76 77  1  0  0  0  0
 77 78  1  0  0  0  0
 78 79  1  0  0  0  0
 79 80  1  0  0  0  0
 80 81  1  0  0  0  0
 79 82  2  0  0  0  0
 82 83  1  0  0  0  0
 83 84  1  0  0  0  0
 82 85  1  0  0  0  0
 76 86  2  0  0  0  0
 86 87  1  0  0  0  0
 75 88  1  0  0  0  0
 88 89  2  0  0  0  0
 89 90  1  0  0  0  0
 89 91  1  0  0  0  0
 91 92  1  0  0  0  0
 92 93  1  0  0  0  0
 93 94  2  0  0  0  0
 94 95  1  0  0  0  0
 95 96  1  0  0  0  0
 96 97  2  0  0  0  0
 97 98  1  0  0  0  0
 98 99  1  0  0  0  0
 99100  1  0  0  0  0
 97101  1  0  0  0  0
101102  1  0  0  0  0
102103  1  0  0  0  0
101104  2  0  0  0  0
 93105  1  0  0  0  0
105106  2  0  0  0  0
106107  1  0  0  0  0
107108  2  0  0  0  0
108109  1  0  0  0  0
109110  2  0  0  0  0
110111  1  0  0  0  0
111112  1  0  0  0  0
112113  1  0  0  0  0
113114  1  0  0  0  0
114115  1  0  0  0  0
113116  2  0  0  0  0
116117  1  0  0  0  0
116118  1  0  0  0  0
118119  1  0  0  0  0
110120  1  0  0  0  0
120121  2  0  0  0  0
121122  1  0  0  0  0
122123  1  0  0  0  0
123124  1  0  0  0  0
124125  1  0  0  0  0
125126  1  0  0  0  0
126127  1  0  0  0  0
125128  2  0  0  0  0
128129  1  0  0  0  0
129130  1  0  0  0  0
128131  1  0  0  0  0
122132  2  0  0  0  0
132133  1  0  0  0  0
121134  1  0  0  0  0
134135  2  0  0  0  0
135136  1  0  0  0  0
135137  1  0  0  0  0
137138  2  0  0  0  0
138139  1  0  0  0  0
139140  2  0  0  0  0
140141  1  0  0  0  0
141142  1  0  0  0  0
142143  1  0  0  0  0
143144  1  0  0  0  0
144145  1  0  0  0  0
143146  2  0  0  0  0
146147  1  0  0  0  0
146148  1  0  0  0  0
148149  1  0  0  0  0
140150  1  0  0  0  0
150151  2  0  0  0  0
151152  1  0  0  0  0
152153  1  0  0  0  0
153154  1  0  0  0  0
154155  1  0  0  0  0
155156  1  0  0  0  0
156157  1  0  0  0  0
155158  2  0  0  0  0
158159  1  0  0  0  0
159160  1  0  0  0  0
158161  1  0  0  0  0
152162  2  0  0  0  0
162163  1  0  0  0  0
151164  1  0  0  0  0
164165  2  0  0  0  0
165166  1  0  0  0  0
 27  1  1  0  0  0  0
 57 31  1  0  0  0  0
 87 61  1  0  0  0  0
 95 91  2  0  0  0  0
133107  1  0  0  0  0
163137  1  0  0  0  0
 26  3  1  0  0  0  0
 56 33  1  0  0  0  0
 86 63  1  0  0  0  0
104 94  1  0  0  0  0
132109  1  0  0  0  0
162139  1  0  0  0  0
 12  5  2  0  0  0  0
 30 14  1  0  0  0  0
 42 35  2  0  0  0  0
 60 44  1  0  0  0  0
 72 65  2  0  0  0  0
 90 74  1  0  0  0  0
118111  2  0  0  0  0
136120  1  0  0  0  0
148141  2  0  0  0  0
166150  1  0  0  0  0
 23 17  2  0  0  0  0
 53 47  2  0  0  0  0
 83 77  2  0  0  0  0
129123  2  0  0  0  0
159153  2  0  0  0  0
  1167  1  0  0  0  0
  2168  1  0  0  0  0
  8169  1  0  0  0  0
  8170  1  0  0  0  0
  9171  1  0  0  0  0
  9172  1  0  0  0  0
  9173  1  0  0  0  0
 20174  1  0  0  0  0
 20175  1  0  0  0  0
 21176  1  0  0  0  0
 21177  1  0  0  0  0
 21178  1  0  0  0  0
 28179  1  0  0  0  0
 32180  1  0  0  0  0
 38181  1  0  0  0  0
 38182  1  0  0  0  0
 39183  1  0  0  0  0
 39184  1  0  0  0  0
 39185  1  0  0  0  0
 50186  1  0  0  0  0
 50187  1  0  0  0  0
 51188  1  0  0  0  0
 51189  1  0  0  0  0
 51190  1  0  0  0  0
 58191  1  0  0  0  0
 62192  1  0  0  0  0
 68193  1  0  0  0  0
 68194  1  0  0  0  0
 69195  1  0  0  0  0
 69196  1  0  0  0  0
 69197  1  0  0  0  0
 80198  1  0  0  0  0
 80199  1  0  0  0  0
 81200  1  0  0  0  0
 81201  1  0  0  0  0
 81202  1  0  0  0  0
 88203  1  0  0  0  0
 99204  1  0  0  0  0
 99205  1  0  0  0  0
100206  1  0  0  0  0
100207  1  0  0  0  0
100208  1  0  0  0  0
102209  1  0  0  0  0
102210  1  0  0  0  0
103211  1  0  0  0  0
103212  1  0  0  0  0
105213  1  0  0  0  0
106214  1  0  0  0  0
108215  1  0  0  0  0
114216  1  0  0  0  0
114217  1  0  0  0  0
115218  1  0  0  0  0
115219  1  0  0  0  0
115220  1  0  0  0  0
126221  1  0  0  0  0
126222  1  0  0  0  0
127223  1  0  0  0  0
127224  1  0  0  0  0
127225  1  0  0  0  0
134226  1  0  0  0  0
138227  1  0  0  0  0
144228  1  0  0  0  0
144229  1  0  0  0  0
145230  1  0  0  0  0
145231  1  0  0  0  0
145232  1  0  0  0  0
156233  1  0  0  0  0
156234  1  0  0  0  0
157235  1  0  0  0  0
157236  1  0  0  0  0
157237  1  0  0  0  0
164238  1  0  0  0  0
165239  1  0  0  0  0
M  END
