
  xtb     02282217183D
 energy: -252.616952771186 gnorm: 0.000799812901 xtb: 6.4.1 (unknown)
146159  0     0  0            999 V2000
    5.6476   -3.9700    4.0929 C   0  0  0  0  0  0  0  0  0  0  0  0
    4.0597   -4.1981    4.6890 S   0  0  0  0  0  0  0  0  0  0  0  0
    3.4160   -2.8673    3.7720 C   0  0  0  0  0  0  0  0  0  0  0  0
    4.4364   -2.2742    3.0342 C   0  0  0  0  0  0  0  0  0  0  0  0
    5.7108   -2.9029    3.2345 C   0  0  0  0  0  0  0  0  0  0  0  0
    6.8342   -2.4310    2.6288 N   0  0  0  0  0  0  0  0  0  0  0  0
    6.6798   -1.3691    1.8921 C   0  0  0  0  0  0  0  0  0  0  0  0
    7.7265   -0.7897    1.3053 O   0  0  0  0  0  0  0  0  0  0  0  0
    8.9942   -1.4120    1.4816 C   0  0  0  0  0  0  0  0  0  0  0  0
    9.1632   -2.6282    0.5815 C   0  0  0  0  0  0  0  0  0  0  0  0
    5.3931   -0.7376    1.6745 C   0  0  0  0  0  0  0  0  0  0  0  0
    5.3013    0.4587    0.7698 C   0  0  0  0  0  0  0  0  0  0  0  0
    3.9657    0.7414    0.2893 N   0  0  0  0  0  0  0  0  0  0  0  0
    4.3085   -1.1931    2.2272 N   0  0  0  0  0  0  0  0  0  0  0  0
    2.0547   -2.4814    3.8544 C   0  0  0  0  0  0  0  0  0  0  0  0
    1.2158   -2.9180    4.8229 C   0  0  0  0  0  0  0  0  0  0  0  0
   -0.1468   -2.5602    4.9802 C   0  0  0  0  0  0  0  0  0  0  0  0
   -1.0721   -1.8030    3.6856 S   0  0  0  0  0  0  0  0  0  0  0  0
   -0.9084   -2.7326    6.1226 C   0  0  0  0  0  0  0  0  0  0  0  0
   -2.2081   -2.2518    5.9737 C   0  0  0  0  0  0  0  0  0  0  0  0
   -3.3930   -2.0662    6.7926 C   0  0  0  0  0  0  0  0  0  0  0  0
   -3.5880   -2.4642    8.3669 S   0  0  0  0  0  0  0  0  0  0  0  0
   -2.4600   -1.7540    4.6826 C   0  0  0  0  0  0  0  0  0  0  0  0
   -3.7996   -1.2959    4.6331 C   0  0  0  0  0  0  0  0  0  0  0  0
   -4.8938   -0.6128    3.5135 S   0  0  0  0  0  0  0  0  0  0  0  0
   -4.3665   -1.4381    5.9125 C   0  0  0  0  0  0  0  0  0  0  0  0
   -5.6624   -0.9399    5.9809 C   0  0  0  0  0  0  0  0  0  0  0  0
   -6.1138   -0.4357    4.7661 C   0  0  0  0  0  0  0  0  0  0  0  0
   -7.4305    0.0587    4.5691 C   0  0  0  0  0  0  0  0  0  0  0  0
   -8.0940    0.4165    3.4422 C   0  0  0  0  0  0  0  0  0  0  0  0
   -7.5915    0.5125    2.1132 C   0  0  0  0  0  0  0  0  0  0  0  0
   -8.5605   -0.1112    0.7994 S   0  0  0  0  0  0  0  0  0  0  0  0
   -7.3045    0.0972   -0.3713 C   0  0  0  0  0  0  0  0  0  0  0  0
   -6.2199    0.7415    0.2184 C   0  0  0  0  0  0  0  0  0  0  0  0
   -6.3947    1.0059    1.6097 C   0  0  0  0  0  0  0  0  0  0  0  0
   -5.4753    1.7275    2.2991 N   0  0  0  0  0  0  0  0  0  0  0  0
   -4.4115    2.1013    1.6406 C   0  0  0  0  0  0  0  0  0  0  0  0
   -3.4800    2.8698    2.2015 O   0  0  0  0  0  0  0  0  0  0  0  0
   -3.6668    3.2850    3.5539 C   0  0  0  0  0  0  0  0  0  0  0  0
   -2.8835    2.4031    4.5155 C   0  0  0  0  0  0  0  0  0  0  0  0
   -4.1839    1.7350    0.2601 C   0  0  0  0  0  0  0  0  0  0  0  0
   -2.8835    2.0610   -0.4208 C   0  0  0  0  0  0  0  0  0  0  0  0
   -2.8022    1.6036   -1.7949 N   0  0  0  0  0  0  0  0  0  0  0  0
   -5.0832    1.0937   -0.4215 N   0  0  0  0  0  0  0  0  0  0  0  0
   -7.4000   -0.3186   -1.7344 C   0  0  0  0  0  0  0  0  0  0  0  0
   -6.3736   -0.9062   -2.3942 C   0  0  0  0  0  0  0  0  0  0  0  0
   -5.2166   -1.4815   -1.8049 C   0  0  0  0  0  0  0  0  0  0  0  0
   -5.1366   -2.0497   -0.1611 S   0  0  0  0  0  0  0  0  0  0  0  0
   -3.5189   -2.6622   -0.3171 C   0  0  0  0  0  0  0  0  0  0  0  0
   -3.0809   -2.4767   -1.6303 C   0  0  0  0  0  0  0  0  0  0  0  0
   -4.0246   -1.7968   -2.4559 C   0  0  0  0  0  0  0  0  0  0  0  0
   -3.7168   -1.4517   -3.7287 N   0  0  0  0  0  0  0  0  0  0  0  0
   -2.5471   -1.8286   -4.1688 C   0  0  0  0  0  0  0  0  0  0  0  0
   -2.1339   -1.5021   -5.3939 O   0  0  0  0  0  0  0  0  0  0  0  0
   -2.9490   -0.5966   -6.1337 C   0  0  0  0  0  0  0  0  0  0  0  0
   -2.7175    0.8423   -5.6926 C   0  0  0  0  0  0  0  0  0  0  0  0
   -1.6401   -2.6264   -3.3772 C   0  0  0  0  0  0  0  0  0  0  0  0
   -0.3497   -3.1214   -3.9725 C   0  0  0  0  0  0  0  0  0  0  0  0
    0.4709   -3.9202   -3.0880 N   0  0  0  0  0  0  0  0  0  0  0  0
   -1.9084   -2.9187   -2.1399 N   0  0  0  0  0  0  0  0  0  0  0  0
   -2.8799   -3.3201    0.7675 C   0  0  0  0  0  0  0  0  0  0  0  0
   -1.5416   -3.3775    1.0050 C   0  0  0  0  0  0  0  0  0  0  0  0
   -0.5287   -2.5861    0.4178 C   0  0  0  0  0  0  0  0  0  0  0  0
   -0.8028   -1.0532   -0.3485 S   0  0  0  0  0  0  0  0  0  0  0  0
    0.8584   -0.8542   -0.8202 C   0  0  0  0  0  0  0  0  0  0  0  0
    1.6161   -1.9211   -0.3172 C   0  0  0  0  0  0  0  0  0  0  0  0
    0.8393   -2.8714    0.4081 C   0  0  0  0  0  0  0  0  0  0  0  0
    1.4091   -3.9604    0.9702 N   0  0  0  0  0  0  0  0  0  0  0  0
    2.6947   -4.0982    0.7891 C   0  0  0  0  0  0  0  0  0  0  0  0
    3.3510   -5.1229    1.3374 O   0  0  0  0  0  0  0  0  0  0  0  0
    2.5809   -6.0461    2.1034 C   0  0  0  0  0  0  0  0  0  0  0  0
    1.7836   -6.9957    1.2206 C   0  0  0  0  0  0  0  0  0  0  0  0
    3.4753   -3.1779   -0.0014 C   0  0  0  0  0  0  0  0  0  0  0  0
    4.9114   -3.4955   -0.2775 C   0  0  0  0  0  0  0  0  0  0  0  0
    5.6269   -2.3494   -0.7947 N   0  0  0  0  0  0  0  0  0  0  0  0
    2.9374   -2.1149   -0.5284 N   0  0  0  0  0  0  0  0  0  0  0  0
    1.2828    0.2006   -1.6497 C   0  0  0  0  0  0  0  0  0  0  0  0
    0.4304    1.1171   -2.1855 C   0  0  0  0  0  0  0  0  0  0  0  0
    0.8048    2.1771   -3.0374 C   0  0  0  0  0  0  0  0  0  0  0  0
   -0.4697    3.1872   -3.7097 S   0  0  0  0  0  0  0  0  0  0  0  0
    2.0647    2.5814   -3.4634 C   0  0  0  0  0  0  0  0  0  0  0  0
    2.0021    3.6751   -4.3173 C   0  0  0  0  0  0  0  0  0  0  0  0
    2.9280    4.5186   -5.0673 C   0  0  0  0  0  0  0  0  0  0  0  0
    4.5568    4.3887   -5.1287 S   0  0  0  0  0  0  0  0  0  0  0  0
    0.6881    4.1214   -4.5504 C   0  0  0  0  0  0  0  0  0  0  0  0
    0.7461    5.2329   -5.4290 C   0  0  0  0  0  0  0  0  0  0  0  0
   -0.3166    6.3293   -6.1916 S   0  0  0  0  0  0  0  0  0  0  0  0
    2.0907    5.4844   -5.7485 C   0  0  0  0  0  0  0  0  0  0  0  0
    2.2453    6.5726   -6.6147 C   0  0  0  0  0  0  0  0  0  0  0  0
    1.0432    7.1486   -6.9557 C   0  0  0  0  0  0  0  0  0  0  0  0
    0.8420    8.2765   -7.8175 C   0  0  0  0  0  0  0  0  0  0  0  0
   -0.3398    8.8077   -8.1239 C   0  0  0  0  0  0  0  0  0  0  0  0
    6.4433   -4.6089    4.4169 H   0  0  0  0  0  0  0  0  0  0  0  0
    9.7207   -0.6363    1.2280 H   0  0  0  0  0  0  0  0  0  0  0  0
    9.1083   -1.7036    2.5307 H   0  0  0  0  0  0  0  0  0  0  0  0
   10.1581   -3.0440    0.7129 H   0  0  0  0  0  0  0  0  0  0  0  0
    8.4260   -3.3822    0.8432 H   0  0  0  0  0  0  0  0  0  0  0  0
    9.0311   -2.3435   -0.4594 H   0  0  0  0  0  0  0  0  0  0  0  0
    5.9564    0.2832   -0.0875 H   0  0  0  0  0  0  0  0  0  0  0  0
    5.6857    1.3356    1.3044 H   0  0  0  0  0  0  0  0  0  0  0  0
    3.3616    0.9444    1.0805 H   0  0  0  0  0  0  0  0  0  0  0  0
    3.6065   -0.1137   -0.1291 H   0  0  0  0  0  0  0  0  0  0  0  0
    1.7219   -1.7660    3.1140 H   0  0  0  0  0  0  0  0  0  0  0  0
    1.6094   -3.5736    5.5910 H   0  0  0  0  0  0  0  0  0  0  0  0
   -0.5194   -3.1698    7.0241 H   0  0  0  0  0  0  0  0  0  0  0  0
   -6.2639   -0.9355    6.8719 H   0  0  0  0  0  0  0  0  0  0  0  0
   -8.0117    0.0571    5.4837 H   0  0  0  0  0  0  0  0  0  0  0  0
   -9.1636    0.5635    3.5327 H   0  0  0  0  0  0  0  0  0  0  0  0
   -3.2946    4.3127    3.5909 H   0  0  0  0  0  0  0  0  0  0  0  0
   -4.7337    3.2635    3.7920 H   0  0  0  0  0  0  0  0  0  0  0  0
   -2.9846    2.7879    5.5263 H   0  0  0  0  0  0  0  0  0  0  0  0
   -1.8313    2.3917    4.2425 H   0  0  0  0  0  0  0  0  0  0  0  0
   -3.2625    1.3858    4.4888 H   0  0  0  0  0  0  0  0  0  0  0  0
   -2.7171    3.1423   -0.3928 H   0  0  0  0  0  0  0  0  0  0  0  0
   -2.0742    1.5939    0.1534 H   0  0  0  0  0  0  0  0  0  0  0  0
   -3.4994    2.0907   -2.3502 H   0  0  0  0  0  0  0  0  0  0  0  0
   -3.0577    0.6197   -1.8263 H   0  0  0  0  0  0  0  0  0  0  0  0
   -8.3284   -0.1213   -2.2523 H   0  0  0  0  0  0  0  0  0  0  0  0
   -6.4241   -1.0136   -3.4696 H   0  0  0  0  0  0  0  0  0  0  0  0
   -2.6494   -0.7404   -7.1743 H   0  0  0  0  0  0  0  0  0  0  0  0
   -4.0000   -0.8718   -6.0051 H   0  0  0  0  0  0  0  0  0  0  0  0
   -3.3228    1.5122   -6.2959 H   0  0  0  0  0  0  0  0  0  0  0  0
   -2.9905    0.9610   -4.6474 H   0  0  0  0  0  0  0  0  0  0  0  0
   -1.6698    1.1073   -5.8112 H   0  0  0  0  0  0  0  0  0  0  0  0
    0.2310   -2.2561   -4.3101 H   0  0  0  0  0  0  0  0  0  0  0  0
   -0.5860   -3.7160   -4.8624 H   0  0  0  0  0  0  0  0  0  0  0  0
    0.7650   -3.3580   -2.2960 H   0  0  0  0  0  0  0  0  0  0  0  0
   -0.0854   -4.6813   -2.7102 H   0  0  0  0  0  0  0  0  0  0  0  0
   -3.5398   -3.8406    1.4500 H   0  0  0  0  0  0  0  0  0  0  0  0
   -1.1758   -4.0880    1.7354 H   0  0  0  0  0  0  0  0  0  0  0  0
    3.3184   -6.5905    2.6973 H   0  0  0  0  0  0  0  0  0  0  0  0
    1.9089   -5.4891    2.7642 H   0  0  0  0  0  0  0  0  0  0  0  0
    2.4457   -7.5126    0.5301 H   0  0  0  0  0  0  0  0  0  0  0  0
    1.2774   -7.7282    1.8425 H   0  0  0  0  0  0  0  0  0  0  0  0
    1.0425   -6.4392    0.6532 H   0  0  0  0  0  0  0  0  0  0  0  0
    4.9097   -4.3658   -0.9615 H   0  0  0  0  0  0  0  0  0  0  0  0
    5.3893   -3.8312    0.6501 H   0  0  0  0  0  0  0  0  0  0  0  0
    5.0456   -1.8680   -1.4726 H   0  0  0  0  0  0  0  0  0  0  0  0
    6.4880   -2.6368   -1.2441 H   0  0  0  0  0  0  0  0  0  0  0  0
    2.3395    0.2354   -1.8668 H   0  0  0  0  0  0  0  0  0  0  0  0
   -0.6298    1.0485   -1.9718 H   0  0  0  0  0  0  0  0  0  0  0  0
    2.9741    2.1045   -3.1480 H   0  0  0  0  0  0  0  0  0  0  0  0
    3.1926    6.9278   -6.9781 H   0  0  0  0  0  0  0  0  0  0  0  0
    1.7522    8.6951   -8.2279 H   0  0  0  0  0  0  0  0  0  0  0  0
   -0.4247    9.6554   -8.7795 H   0  0  0  0  0  0  0  0  0  0  0  0
   -1.2578    8.4051   -7.7281 H   0  0  0  0  0  0  0  0  0  0  0  0
  1  2  1  0  0  0  0
  2  3  1  0  0  0  0
  3  4  2  0  0  0  0
  4  5  1  0  0  0  0
  5  6  1  0  0  0  0
  6  7  2  0  0  0  0
  7  8  1  0  0  0  0
  8  9  1  0  0  0  0
  9 10  1  0  0  0  0
  7 11  1  0  0  0  0
 11 12  1  0  0  0  0
 12 13  1  0  0  0  0
 11 14  2  0  0  0  0
  3 15  1  0  0  0  0
 15 16  2  0  0  0  0
 16 17  1  0  0  0  0
 17 18  1  0  0  0  0
 17 19  2  0  0  0  0
 19 20  1  0  0  0  0
 20 21  1  0  0  0  0
 21 22  2  0  0  0  0
 20 23  2  0  0  0  0
 23 24  1  0  0  0  0
 24 25  1  0  0  0  0
 24 26  2  0  0  0  0
 26 27  1  0  0  0  0
 27 28  2  0  0  0  0
 28 29  1  0  0  0  0
 29 30  2  0  0  0  0
 30 31  1  0  0  0  0
 31 32  1  0  0  0  0
 32 33  1  0  0  0  0
 33 34  2  0  0  0  0
 34 35  1  0  0  0  0
 35 36  1  0  0  0  0
 36 37  2  0  0  0  0
 37 38  1  0  0  0  0
 38 39  1  0  0  0  0
 39 40  1  0  0  0  0
 37 41  1  0  0  0  0
 41 42  1  0  0  0  0
 42 43  1  0  0  0  0
 41 44  2  0  0  0  0
 33 45  1  0  0  0  0
 45 46  2  0  0  0  0
 46 47  1  0  0  0  0
 47 48  1  0  0  0  0
 48 49  1  0  0  0  0
 49 50  2  0  0  0  0
 50 51  1  0  0  0  0
 51 52  1  0  0  0  0
 52 53  2  0  0  0  0
 53 54  1  0  0  0  0
 54 55  1  0  0  0  0
 55 56  1  0  0  0  0
 53 57  1  0  0  0  0
 57 58  1  0  0  0  0
 58 59  1  0  0  0  0
 57 60  2  0  0  0  0
 49 61  1  0  0  0  0
 61 62  2  0  0  0  0
 62 63  1  0  0  0  0
 63 64  1  0  0  0  0
 64 65  1  0  0  0  0
 65 66  2  0  0  0  0
 66 67  1  0  0  0  0
 67 68  1  0  0  0  0
 68 69  2  0  0  0  0
 69 70  1  0  0  0  0
 70 71  1  0  0  0  0
 71 72  1  0  0  0  0
 69 73  1  0  0  0  0
 73 74  1  0  0  0  0
 74 75  1  0  0  0  0
 73 76  2  0  0  0  0
 65 77  1  0  0  0  0
 77 78  2  0  0  0  0
 78 79  1  0  0  0  0
 79 80  1  0  0  0  0
 79 81  2  0  0  0  0
 81 82  1  0  0  0  0
 82 83  1  0  0  0  0
 83 84  2  0  0  0  0
 82 85  2  0  0  0  0
 85 86  1  0  0  0  0
 86 87  1  0  0  0  0
 86 88  2  0  0  0  0
 88 89  1  0  0  0  0
 89 90  2  0  0  0  0
 90 91  1  0  0  0  0
 91 92  2  0  0  0  0
  5  1  2  0  0  0  0
 23 18  1  0  0  0  0
 35 31  2  0  0  0  0
 51 47  2  0  0  0  0
 67 63  2  0  0  0  0
 85 80  1  0  0  0  0
 14  4  1  0  0  0  0
 26 21  1  0  0  0  0
 44 34  1  0  0  0  0
 60 50  1  0  0  0  0
 76 66  1  0  0  0  0
 88 83  1  0  0  0  0
 28 25  1  0  0  0  0
 90 87  1  0  0  0  0
  1 93  1  0  0  0  0
  9 94  1  0  0  0  0
  9 95  1  0  0  0  0
 10 96  1  0  0  0  0
 10 97  1  0  0  0  0
 10 98  1  0  0  0  0
 12 99  1  0  0  0  0
 12100  1  0  0  0  0
 13101  1  0  0  0  0
 13102  1  0  0  0  0
 15103  1  0  0  0  0
 16104  1  0  0  0  0
 19105  1  0  0  0  0
 27106  1  0  0  0  0
 29107  1  0  0  0  0
 30108  1  0  0  0  0
 39109  1  0  0  0  0
 39110  1  0  0  0  0
 40111  1  0  0  0  0
 40112  1  0  0  0  0
 40113  1  0  0  0  0
 42114  1  0  0  0  0
 42115  1  0  0  0  0
 43116  1  0  0  0  0
 43117  1  0  0  0  0
 45118  1  0  0  0  0
 46119  1  0  0  0  0
 55120  1  0  0  0  0
 55121  1  0  0  0  0
 56122  1  0  0  0  0
 56123  1  0  0  0  0
 56124  1  0  0  0  0
 58125  1  0  0  0  0
 58126  1  0  0  0  0
 59127  1  0  0  0  0
 59128  1  0  0  0  0
 61129  1  0  0  0  0
 62130  1  0  0  0  0
 71131  1  0  0  0  0
 71132  1  0  0  0  0
 72133  1  0  0  0  0
 72134  1  0  0  0  0
 72135  1  0  0  0  0
 74136  1  0  0  0  0
 74137  1  0  0  0  0
 75138  1  0  0  0  0
 75139  1  0  0  0  0
 77140  1  0  0  0  0
 78141  1  0  0  0  0
 81142  1  0  0  0  0
 89143  1  0  0  0  0
 91144  1  0  0  0  0
 92145  1  0  0  0  0
 92146  1  0  0  0  0
M  END
