
  xtb     02282219323D
 energy: -221.681036691922 gnorm: 0.000266217232 xtb: 6.4.1 (unknown)
154165  0     0  0            999 V2000
    4.3695    5.2317    2.0057 C   0  0  0  0  0  0  0  0  0  0  0  0
    2.8222    4.6142    2.3831 S   0  0  0  0  0  0  0  0  0  0  0  0
    3.1435    3.0972    1.5892 C   0  0  0  0  0  0  0  0  0  0  0  0
    4.4142    3.1211    1.0062 C   0  0  0  0  0  0  0  0  0  0  0  0
    5.1209    4.3386    1.2737 C   0  0  0  0  0  0  0  0  0  0  0  0
    6.4384    4.5189    0.7862 C   0  0  0  0  0  0  0  0  0  0  0  0
    7.0315    3.5596    0.0168 C   0  0  0  0  0  0  0  0  0  0  0  0
    8.4504    3.6778   -0.5139 C   0  0  0  0  0  0  0  0  0  0  0  0
    8.4216    3.6588   -2.0487 C   0  0  0  0  0  0  0  0  0  0  0  0
    9.2746    2.4922    0.0083 C   0  0  0  0  0  0  0  0  0  0  0  0
    9.1387    4.9698   -0.0660 C   0  0  0  0  0  0  0  0  0  0  0  0
    6.2799    2.3992   -0.3185 C   0  0  0  0  0  0  0  0  0  0  0  0
    5.0197    2.1800    0.1483 C   0  0  0  0  0  0  0  0  0  0  0  0
    2.1705    2.0694    1.6209 C   0  0  0  0  0  0  0  0  0  0  0  0
    0.4852    2.4838    1.6429 S   0  0  0  0  0  0  0  0  0  0  0  0
   -0.0367    0.8226    1.6634 C   0  0  0  0  0  0  0  0  0  0  0  0
    1.0916   -0.0273    1.7017 C   0  0  0  0  0  0  0  0  0  0  0  0
    2.3300    0.6788    1.7042 C   0  0  0  0  0  0  0  0  0  0  0  0
    3.5412   -0.0187    1.8823 C   0  0  0  0  0  0  0  0  0  0  0  0
    3.5609   -1.3855    1.9804 C   0  0  0  0  0  0  0  0  0  0  0  0
    4.8419   -2.1762    2.1881 C   0  0  0  0  0  0  0  0  0  0  0  0
    4.9792   -3.2373    1.0877 C   0  0  0  0  0  0  0  0  0  0  0  0
    4.7753   -2.8619    3.5603 C   0  0  0  0  0  0  0  0  0  0  0  0
    6.0908   -1.2906    2.1506 C   0  0  0  0  0  0  0  0  0  0  0  0
    2.3286   -2.0766    1.9251 C   0  0  0  0  0  0  0  0  0  0  0  0
    1.1316   -1.4275    1.8086 C   0  0  0  0  0  0  0  0  0  0  0  0
   -1.3936    0.4908    1.5647 C   0  0  0  0  0  0  0  0  0  0  0  0
   -1.8704   -1.1009    1.0535 S   0  0  0  0  0  0  0  0  0  0  0  0
   -3.5542   -0.6799    0.9075 C   0  0  0  0  0  0  0  0  0  0  0  0
   -3.7541    0.6423    1.3431 C   0  0  0  0  0  0  0  0  0  0  0  0
   -2.5447    1.3029    1.7096 C   0  0  0  0  0  0  0  0  0  0  0  0
   -2.6061    2.6253    2.1709 C   0  0  0  0  0  0  0  0  0  0  0  0
   -3.8017    3.3048    2.2487 C   0  0  0  0  0  0  0  0  0  0  0  0
   -3.7959    4.7482    2.7276 C   0  0  0  0  0  0  0  0  0  0  0  0
   -3.2216    4.8063    4.1500 C   0  0  0  0  0  0  0  0  0  0  0  0
   -2.9179    5.5771    1.7786 C   0  0  0  0  0  0  0  0  0  0  0  0
   -5.1943    5.3712    2.7513 C   0  0  0  0  0  0  0  0  0  0  0  0
   -4.9828    2.6324    1.8783 C   0  0  0  0  0  0  0  0  0  0  0  0
   -4.9683    1.3322    1.4492 C   0  0  0  0  0  0  0  0  0  0  0  0
   -4.3806   -1.6312    0.2882 C   0  0  0  0  0  0  0  0  0  0  0  0
   -3.6669   -3.2109    0.0596 S   0  0  0  0  0  0  0  0  0  0  0  0
   -4.7865   -3.6808   -1.1812 C   0  0  0  0  0  0  0  0  0  0  0  0
   -5.7983   -2.7185   -1.2581 C   0  0  0  0  0  0  0  0  0  0  0  0
   -5.5720   -1.5572   -0.4499 C   0  0  0  0  0  0  0  0  0  0  0  0
   -6.4160   -0.5054   -0.5144 N   0  0  0  0  0  0  0  0  0  0  0  0
   -7.4288   -0.6078   -1.3361 C   0  0  0  0  0  0  0  0  0  0  0  0
   -8.2913    0.4051   -1.4960 O   0  0  0  0  0  0  0  0  0  0  0  0
   -8.1052    1.5663   -0.6945 C   0  0  0  0  0  0  0  0  0  0  0  0
   -8.7156    1.3951    0.6905 C   0  0  0  0  0  0  0  0  0  0  0  0
   -7.6781   -1.7865   -2.1200 C   0  0  0  0  0  0  0  0  0  0  0  0
   -8.8754   -1.8455   -3.0184 C   0  0  0  0  0  0  0  0  0  0  0  0
   -9.2099   -3.2103   -3.3767 N   0  0  0  0  0  0  0  0  0  0  0  0
   -6.8654   -2.8037   -2.0776 N   0  0  0  0  0  0  0  0  0  0  0  0
   -4.6382   -4.8706   -1.9298 C   0  0  0  0  0  0  0  0  0  0  0  0
   -3.4636   -5.5275   -2.1571 C   0  0  0  0  0  0  0  0  0  0  0  0
   -2.1533   -5.0167   -1.9534 C   0  0  0  0  0  0  0  0  0  0  0  0
   -1.7589   -3.3526   -2.2311 S   0  0  0  0  0  0  0  0  0  0  0  0
   -0.1144   -3.5145   -1.6877 C   0  0  0  0  0  0  0  0  0  0  0  0
    0.1407   -4.8695   -1.3802 C   0  0  0  0  0  0  0  0  0  0  0  0
   -1.0002   -5.7106   -1.5589 C   0  0  0  0  0  0  0  0  0  0  0  0
   -0.9228   -7.0843   -1.2763 C   0  0  0  0  0  0  0  0  0  0  0  0
    0.2452   -7.6554   -0.8345 C   0  0  0  0  0  0  0  0  0  0  0  0
    0.2953   -9.1508   -0.5610 C   0  0  0  0  0  0  0  0  0  0  0  0
   -0.0619   -9.9061   -1.8492 C   0  0  0  0  0  0  0  0  0  0  0  0
    1.6760   -9.6258   -0.1003 C   0  0  0  0  0  0  0  0  0  0  0  0
   -0.7200   -9.4904    0.5394 C   0  0  0  0  0  0  0  0  0  0  0  0
    1.3601   -6.8128   -0.6406 C   0  0  0  0  0  0  0  0  0  0  0  0
    1.3167   -5.4698   -0.8978 C   0  0  0  0  0  0  0  0  0  0  0  0
    0.7311   -2.3868   -1.6038 C   0  0  0  0  0  0  0  0  0  0  0  0
    2.4394   -2.5896   -1.3191 S   0  0  0  0  0  0  0  0  0  0  0  0
    2.7478   -0.9183   -1.3429 C   0  0  0  0  0  0  0  0  0  0  0  0
    1.6010   -0.1879   -1.5568 C   0  0  0  0  0  0  0  0  0  0  0  0
    0.4387   -1.0107   -1.7201 C   0  0  0  0  0  0  0  0  0  0  0  0
   -0.7944   -0.3813   -1.9821 C   0  0  0  0  0  0  0  0  0  0  0  0
   -0.8922    0.9825   -2.1000 C   0  0  0  0  0  0  0  0  0  0  0  0
   -2.1811    1.6789   -2.5075 C   0  0  0  0  0  0  0  0  0  0  0  0
   -1.9794    2.2252   -3.9303 C   0  0  0  0  0  0  0  0  0  0  0  0
   -3.3882    0.7371   -2.5201 C   0  0  0  0  0  0  0  0  0  0  0  0
   -2.4976    2.8388   -1.5540 C   0  0  0  0  0  0  0  0  0  0  0  0
    0.2714    1.7722   -1.9147 C   0  0  0  0  0  0  0  0  0  0  0  0
    1.4828    1.2171   -1.6449 C   0  0  0  0  0  0  0  0  0  0  0  0
    4.6455    6.2128    2.3364 H   0  0  0  0  0  0  0  0  0  0  0  0
    6.9378    5.4385    1.0432 H   0  0  0  0  0  0  0  0  0  0  0  0
    9.4296    3.7712   -2.4422 H   0  0  0  0  0  0  0  0  0  0  0  0
    7.8114    4.4783   -2.4231 H   0  0  0  0  0  0  0  0  0  0  0  0
    8.0116    2.7276   -2.4298 H   0  0  0  0  0  0  0  0  0  0  0  0
   10.3003    2.5641   -0.3473 H   0  0  0  0  0  0  0  0  0  0  0  0
    8.8653    1.5431   -0.3265 H   0  0  0  0  0  0  0  0  0  0  0  0
    9.2858    2.4931    1.0964 H   0  0  0  0  0  0  0  0  0  0  0  0
    9.1953    5.0268    1.0186 H   0  0  0  0  0  0  0  0  0  0  0  0
   10.1535    4.9946   -0.4578 H   0  0  0  0  0  0  0  0  0  0  0  0
    8.6124    5.8440   -0.4421 H   0  0  0  0  0  0  0  0  0  0  0  0
    6.7198    1.6645   -0.9756 H   0  0  0  0  0  0  0  0  0  0  0  0
    4.4674    1.3021   -0.1480 H   0  0  0  0  0  0  0  0  0  0  0  0
    4.4423    0.5618    1.9757 H   0  0  0  0  0  0  0  0  0  0  0  0
    5.0064   -2.7671    0.1072 H   0  0  0  0  0  0  0  0  0  0  0  0
    5.9011   -3.7983    1.2258 H   0  0  0  0  0  0  0  0  0  0  0  0
    4.1510   -3.9395    1.1032 H   0  0  0  0  0  0  0  0  0  0  0  0
    5.6878   -3.4256    3.7426 H   0  0  0  0  0  0  0  0  0  0  0  0
    3.9330   -3.5460    3.6179 H   0  0  0  0  0  0  0  0  0  0  0  0
    4.6652   -2.1186    4.3473 H   0  0  0  0  0  0  0  0  0  0  0  0
    6.1710   -0.7644    1.2019 H   0  0  0  0  0  0  0  0  0  0  0  0
    6.9777   -1.9099    2.2690 H   0  0  0  0  0  0  0  0  0  0  0  0
    6.0825   -0.5620    2.9578 H   0  0  0  0  0  0  0  0  0  0  0  0
    2.3187   -3.1523    2.0080 H   0  0  0  0  0  0  0  0  0  0  0  0
    0.2190   -2.0004    1.8202 H   0  0  0  0  0  0  0  0  0  0  0  0
   -1.6934    3.1067    2.4789 H   0  0  0  0  0  0  0  0  0  0  0  0
   -3.8183    4.1932    4.8224 H   0  0  0  0  0  0  0  0  0  0  0  0
   -2.1970    4.4467    4.1783 H   0  0  0  0  0  0  0  0  0  0  0  0
   -3.2325    5.8307    4.5159 H   0  0  0  0  0  0  0  0  0  0  0  0
   -3.3030    5.5174    0.7627 H   0  0  0  0  0  0  0  0  0  0  0  0
   -2.9148    6.6203    2.0871 H   0  0  0  0  0  0  0  0  0  0  0  0
   -1.8921    5.2194    1.7745 H   0  0  0  0  0  0  0  0  0  0  0  0
   -5.8510    4.8365    3.4338 H   0  0  0  0  0  0  0  0  0  0  0  0
   -5.1244    6.4019    3.0933 H   0  0  0  0  0  0  0  0  0  0  0  0
   -5.6377    5.3776    1.7581 H   0  0  0  0  0  0  0  0  0  0  0  0
   -5.9323    3.1374    1.9437 H   0  0  0  0  0  0  0  0  0  0  0  0
   -5.8744    0.8179    1.1812 H   0  0  0  0  0  0  0  0  0  0  0  0
   -7.0361    1.7881   -0.6207 H   0  0  0  0  0  0  0  0  0  0  0  0
   -8.6128    2.3646   -1.2420 H   0  0  0  0  0  0  0  0  0  0  0  0
   -8.5848    2.3077    1.2648 H   0  0  0  0  0  0  0  0  0  0  0  0
   -8.2319    0.5749    1.2149 H   0  0  0  0  0  0  0  0  0  0  0  0
   -9.7776    1.1769    0.6074 H   0  0  0  0  0  0  0  0  0  0  0  0
   -8.6511   -1.2018   -3.8882 H   0  0  0  0  0  0  0  0  0  0  0  0
   -9.7283   -1.3892   -2.5017 H   0  0  0  0  0  0  0  0  0  0  0  0
   -9.6554   -3.2490   -4.2855 H   0  0  0  0  0  0  0  0  0  0  0  0
   -8.3565   -3.7590   -3.4055 H   0  0  0  0  0  0  0  0  0  0  0  0
   -5.5573   -5.2876   -2.3199 H   0  0  0  0  0  0  0  0  0  0  0  0
   -3.5184   -6.5335   -2.5566 H   0  0  0  0  0  0  0  0  0  0  0  0
   -1.8118   -7.6785   -1.4201 H   0  0  0  0  0  0  0  0  0  0  0  0
    0.6357   -9.6465   -2.6430 H   0  0  0  0  0  0  0  0  0  0  0  0
   -0.0098  -10.9798   -1.6811 H   0  0  0  0  0  0  0  0  0  0  0  0
   -1.0660   -9.6636   -2.1855 H   0  0  0  0  0  0  0  0  0  0  0  0
    1.6517  -10.7015    0.0627 H   0  0  0  0  0  0  0  0  0  0  0  0
    1.9620   -9.1527    0.8364 H   0  0  0  0  0  0  0  0  0  0  0  0
    2.4334   -9.4178   -0.8527 H   0  0  0  0  0  0  0  0  0  0  0  0
   -1.7312   -9.2306    0.2387 H   0  0  0  0  0  0  0  0  0  0  0  0
   -0.6921  -10.5555    0.7598 H   0  0  0  0  0  0  0  0  0  0  0  0
   -0.4851   -8.9427    1.4498 H   0  0  0  0  0  0  0  0  0  0  0  0
    2.2854   -7.2255   -0.2744 H   0  0  0  0  0  0  0  0  0  0  0  0
    2.1990   -4.8775   -0.7233 H   0  0  0  0  0  0  0  0  0  0  0  0
    3.7490   -0.5624   -1.2087 H   0  0  0  0  0  0  0  0  0  0  0  0
   -1.6684   -0.9934   -2.1058 H   0  0  0  0  0  0  0  0  0  0  0  0
   -2.8804    2.7335   -4.2675 H   0  0  0  0  0  0  0  0  0  0  0  0
   -1.7632    1.4109   -4.6191 H   0  0  0  0  0  0  0  0  0  0  0  0
   -1.1530    2.9305   -3.9665 H   0  0  0  0  0  0  0  0  0  0  0  0
   -3.2611   -0.0660   -3.2426 H   0  0  0  0  0  0  0  0  0  0  0  0
   -3.5578    0.3080   -1.5365 H   0  0  0  0  0  0  0  0  0  0  0  0
   -4.2809    1.2948   -2.7971 H   0  0  0  0  0  0  0  0  0  0  0  0
   -3.4468    3.2940   -1.8298 H   0  0  0  0  0  0  0  0  0  0  0  0
   -1.7351    3.6118   -1.5865 H   0  0  0  0  0  0  0  0  0  0  0  0
   -2.5768    2.4804   -0.5317 H   0  0  0  0  0  0  0  0  0  0  0  0
    0.1996    2.8457   -1.9944 H   0  0  0  0  0  0  0  0  0  0  0  0
    2.3619    1.8296   -1.5079 H   0  0  0  0  0  0  0  0  0  0  0  0
  1  2  1  0  0  0  0
  2  3  1  0  0  0  0
  3  4  2  0  0  0  0
  4  5  1  0  0  0  0
  5  6  1  0  0  0  0
  6  7  2  0  0  0  0
  7  8  1  0  0  0  0
  8  9  1  0  0  0  0
  8 10  1  0  0  0  0
  8 11  1  0  0  0  0
  7 12  1  0  0  0  0
 12 13  2  0  0  0  0
  3 14  1  0  0  0  0
 14 15  1  0  0  0  0
 15 16  1  0  0  0  0
 16 17  2  0  0  0  0
 17 18  1  0  0  0  0
 18 19  1  0  0  0  0
 19 20  2  0  0  0  0
 20 21  1  0  0  0  0
 21 22  1  0  0  0  0
 21 23  1  0  0  0  0
 21 24  1  0  0  0  0
 20 25  1  0  0  0  0
 25 26  2  0  0  0  0
 16 27  1  0  0  0  0
 27 28  1  0  0  0  0
 28 29  1  0  0  0  0
 29 30  2  0  0  0  0
 30 31  1  0  0  0  0
 31 32  1  0  0  0  0
 32 33  2  0  0  0  0
 33 34  1  0  0  0  0
 34 35  1  0  0  0  0
 34 36  1  0  0  0  0
 34 37  1  0  0  0  0
 33 38  1  0  0  0  0
 38 39  2  0  0  0  0
 29 40  1  0  0  0  0
 40 41  1  0  0  0  0
 41 42  1  0  0  0  0
 42 43  2  0  0  0  0
 43 44  1  0  0  0  0
 44 45  1  0  0  0  0
 45 46  2  0  0  0  0
 46 47  1  0  0  0  0
 47 48  1  0  0  0  0
 48 49  1  0  0  0  0
 46 50  1  0  0  0  0
 50 51  1  0  0  0  0
 51 52  1  0  0  0  0
 50 53  2  0  0  0  0
 42 54  1  0  0  0  0
 54 55  2  0  0  0  0
 55 56  1  0  0  0  0
 56 57  1  0  0  0  0
 57 58  1  0  0  0  0
 58 59  2  0  0  0  0
 59 60  1  0  0  0  0
 60 61  1  0  0  0  0
 61 62  2  0  0  0  0
 62 63  1  0  0  0  0
 63 64  1  0  0  0  0
 63 65  1  0  0  0  0
 63 66  1  0  0  0  0
 62 67  1  0  0  0  0
 67 68  2  0  0  0  0
 58 69  1  0  0  0  0
 69 70  1  0  0  0  0
 70 71  1  0  0  0  0
 71 72  2  0  0  0  0
 72 73  1  0  0  0  0
 73 74  1  0  0  0  0
 74 75  2  0  0  0  0
 75 76  1  0  0  0  0
 76 77  1  0  0  0  0
 76 78  1  0  0  0  0
 76 79  1  0  0  0  0
 75 80  1  0  0  0  0
 80 81  2  0  0  0  0
  5  1  2  0  0  0  0
 18 14  2  0  0  0  0
 31 27  2  0  0  0  0
 44 40  2  0  0  0  0
 60 56  2  0  0  0  0
 73 69  2  0  0  0  0
 13  4  1  0  0  0  0
 26 17  1  0  0  0  0
 39 30  1  0  0  0  0
 53 43  1  0  0  0  0
 68 59  1  0  0  0  0
 81 72  1  0  0  0  0
  1 82  1  0  0  0  0
  6 83  1  0  0  0  0
  9 84  1  0  0  0  0
  9 85  1  0  0  0  0
  9 86  1  0  0  0  0
 10 87  1  0  0  0  0
 10 88  1  0  0  0  0
 10 89  1  0  0  0  0
 11 90  1  0  0  0  0
 11 91  1  0  0  0  0
 11 92  1  0  0  0  0
 12 93  1  0  0  0  0
 13 94  1  0  0  0  0
 19 95  1  0  0  0  0
 22 96  1  0  0  0  0
 22 97  1  0  0  0  0
 22 98  1  0  0  0  0
 23 99  1  0  0  0  0
 23100  1  0  0  0  0
 23101  1  0  0  0  0
 24102  1  0  0  0  0
 24103  1  0  0  0  0
 24104  1  0  0  0  0
 25105  1  0  0  0  0
 26106  1  0  0  0  0
 32107  1  0  0  0  0
 35108  1  0  0  0  0
 35109  1  0  0  0  0
 35110  1  0  0  0  0
 36111  1  0  0  0  0
 36112  1  0  0  0  0
 36113  1  0  0  0  0
 37114  1  0  0  0  0
 37115  1  0  0  0  0
 37116  1  0  0  0  0
 38117  1  0  0  0  0
 39118  1  0  0  0  0
 48119  1  0  0  0  0
 48120  1  0  0  0  0
 49121  1  0  0  0  0
 49122  1  0  0  0  0
 49123  1  0  0  0  0
 51124  1  0  0  0  0
 51125  1  0  0  0  0
 52126  1  0  0  0  0
 52127  1  0  0  0  0
 54128  1  0  0  0  0
 55129  1  0  0  0  0
 61130  1  0  0  0  0
 64131  1  0  0  0  0
 64132  1  0  0  0  0
 64133  1  0  0  0  0
 65134  1  0  0  0  0
 65135  1  0  0  0  0
 65136  1  0  0  0  0
 66137  1  0  0  0  0
 66138  1  0  0  0  0
 66139  1  0  0  0  0
 67140  1  0  0  0  0
 68141  1  0  0  0  0
 71142  1  0  0  0  0
 74143  1  0  0  0  0
 77144  1  0  0  0  0
 77145  1  0  0  0  0
 77146  1  0  0  0  0
 78147  1  0  0  0  0
 78148  1  0  0  0  0
 78149  1  0  0  0  0
 79150  1  0  0  0  0
 79151  1  0  0  0  0
 79152  1  0  0  0  0
 80153  1  0  0  0  0
 81154  1  0  0  0  0
M  END
