194

C         -4.06880       -6.36690       -6.48010
C         -4.77860       -5.38970       -7.08040
C         -4.93410       -4.23530       -6.25930
C         -5.60530       -3.03800       -6.55150
C         -6.21210       -2.78400       -7.84940
S         -5.27080       -2.87750       -9.30950
C         -6.59870       -2.36590      -10.29580
C         -6.44320       -2.17400      -11.76410
C         -5.90730       -0.77590      -12.08240
C         -7.69630       -2.13430       -9.52260
Cl        -9.20760       -1.60190      -10.14000
C         -7.48320       -2.37390       -8.13780
Cl        -8.73970       -2.22990       -6.98250
C         -5.63290       -2.06650       -5.56020
C         -4.99910       -2.23150       -4.30250
C         -4.30340       -3.41920       -4.02020
C         -3.58770       -3.58340       -2.76400
S         -3.91740       -4.89960       -1.67870
C         -2.74280       -4.34990       -0.53100
C         -2.47080       -5.11800        0.71470
C         -1.58250       -6.33000        0.42470
C         -2.13000       -3.21940       -0.98240
C         -2.60900       -2.78250       -2.24640
Cl        -1.94920       -1.42690       -3.06220
Cl        -0.90500       -2.37240       -0.12270
C         -4.31190       -4.40390       -4.99970
S         -3.53840       -5.96020       -4.88410
C         -5.16920       -1.09520       -3.47700
C         -5.86920       -0.09020       -4.08320
S         -6.37350       -0.49740       -5.70640
C         -6.17440        1.20360       -3.60410
S         -5.66460        1.82770       -2.07220
C         -6.26130        3.42470       -2.40740
C         -6.90270        3.44060       -3.64370
C         -6.82850        2.19050       -4.32730
N         -7.34040        2.01540       -5.56310
C         -7.93030        3.05210       -6.09900
O         -8.51750        2.96280       -7.28380
C         -8.42940        1.71470       -7.96790
C         -7.08420        1.54130       -8.65800
C         -8.00400        4.32820       -5.41470
C         -8.62640        5.50580       -6.10670
N         -7.68240        6.00760       -7.09970
N         -7.49940        4.50680       -4.23140
C         -6.14670        4.52260       -1.49680
C         -5.16910        4.72540       -0.59150
C         -3.95720        3.95300       -0.50370
C         -3.21190        3.46080       -1.53260
C         -2.10020        2.68780       -1.12240
C         -1.20010        1.96660       -1.92990
C         -1.35310        1.91640       -3.37490
S         -2.88740        1.50150       -4.08160
C         -2.25570        1.51620       -5.68700
C         -3.10870        1.13340       -6.84600
C         -2.93330       -0.35080       -7.17730
C         -0.93220        1.84080       -5.66540
Cl         0.03420        1.97870       -7.07600
C         -0.41790        2.07110       -4.36150
Cl         1.19360        2.58590       -4.09660
C         -0.21920        1.22920       -1.28000
C         -0.09980        1.20110        0.13520
C         -0.97190        1.95660        0.93990
C         -0.81730        1.98680        2.38410
S         -0.72160        0.53120        3.33290
C         -0.52250        1.40970        4.81350
C         -0.35950        0.70140        6.11380
C          0.76420       -0.33430        6.06870
C         -0.53880        2.75030        4.56880
C         -0.70250        3.08030        3.19590
Cl        -0.65540        4.69910        2.63490
Cl        -0.38540        3.96090        5.77330
C         -1.96880        2.66970        0.28790
S         -3.24720        3.57080        1.05160
C          0.95940        0.37070        0.55490
C          1.61870       -0.23270       -0.48220
S          0.97220        0.20720       -2.04180
C          2.76910       -1.04270       -0.40210
S          3.46950       -1.52540        1.10920
C          4.90480       -2.14860        0.36480
C          4.79310       -2.05000       -1.03320
C          3.59310       -1.41720       -1.45840
N          3.33100       -1.17640       -2.76000
C          4.23700       -1.58440       -3.60970
O          4.06420       -1.38660       -4.91400
C          2.85840       -0.72330       -5.29470
C          2.82400       -0.63830       -6.80850
C          5.44730       -2.25180       -3.19210
C          6.44090       -2.68000       -4.22750
N          7.37140       -3.66150       -3.70770
N          5.71190       -2.46000       -1.93230
C          5.98060       -2.75600        1.03810
C          6.27340       -2.81850        2.36740
C          5.72180       -2.13060        3.47480
S          5.89640       -2.88190        5.04350
C          5.13050       -1.58380        5.90210
C          4.76340       -0.58340        4.98980
C          5.12370       -0.87640        3.63890
N          4.95290        0.04830        2.66530
C          4.37450        1.17060        3.00990
O          4.16240        2.14310        2.12590
C          4.61610        1.95740        0.78630
C          3.72290        2.76630       -0.13790
C          3.93430        1.43230        4.35550
C          3.24030        2.72440        4.69810
N          3.03350        2.94200        6.11320
N          4.14780        0.57270        5.31180
C          5.02020       -1.64440        7.30190
C          4.50550       -0.67260        8.10770
C          4.49700       -0.76370        9.51130
S          5.11660       -2.14960       10.36930
C          4.81750       -1.46880       11.93170
C          4.26130       -0.19740       11.79620
C          4.06840        0.19520       10.43600
N          3.52500        1.39290       10.12050
C          3.21270        2.16850       11.12500
O          2.68490        3.37640       10.92720
C          2.38930        3.75290        9.58380
C          1.12720        3.07810        9.07080
C          3.43390        1.79060       12.50250
C          3.09790        2.76870       13.58460
N          3.14280        2.15860       14.89590
N          3.94330        0.63780       12.81410
C          5.14010       -2.21270       13.10970
C          4.84740       -1.81910       14.35100
H         -3.81220       -7.33100       -6.87340
H         -5.18990       -5.47190       -8.06970
H         -7.41620       -2.30890      -12.24020
H         -5.75410       -2.92400      -12.15570
H         -4.94480       -0.62170      -11.60050
H         -6.59950       -0.01610      -11.72890
H         -5.78300       -0.66050      -13.15560
H         -3.41440       -5.45660        1.14680
H         -1.97440       -4.45900        1.42910
H         -2.06830       -6.98990       -0.29000
H         -0.63070       -6.00850        0.00950
H         -1.39420       -6.88330        1.34080
H         -4.79220       -1.01380       -2.47400
H         -9.23970        1.74390       -8.69960
H         -8.59330        0.89880       -7.25730
H         -7.08990        0.62050       -9.23350
H         -6.29240        1.48350       -7.91690
H         -6.89270        2.38120       -9.32120
H         -9.52460        5.17950       -6.63700
H         -8.90030        6.24760       -5.34030
H         -6.84760        6.35270       -6.63680
H         -8.09520        6.77690       -7.61510
H         -6.94630        5.24720       -1.57930
H         -5.27250        5.53370        0.11960
H         -3.45100        3.65640       -2.56190
H         -2.83240        1.73670       -7.71340
H         -4.15370        1.32990       -6.59900
H         -3.60080       -0.63670       -7.98590
H         -3.16030       -0.96210       -6.30700
H         -1.90910       -0.55090       -7.48090
H         -1.29620        0.19640        6.36780
H         -0.15900        1.44700        6.88480
H          1.71340        0.12720        5.80710
H          0.87250       -0.81180        7.03920
H          0.54180       -1.09940        5.32820
H          1.25050        0.22110        1.57870
H          2.00270       -1.28420       -4.90260
H          2.84080        0.27170       -4.83720
H          1.92390       -0.11850       -7.12180
H          3.69200       -0.09510       -7.17270
H          2.82970       -1.63470       -7.24250
H          5.89990       -3.11190       -5.07780
H          6.92840       -1.75910       -4.59830
H          8.24820       -3.63510       -4.21400
H          7.54890       -3.46440       -2.72850
H          6.64120       -3.28820        0.36420
H          7.04730       -3.52530        2.64540
H          4.58820        0.89440        0.53860
H          5.65690        2.29810        0.72500
H          3.78650        3.82350        0.10520
H          2.68900        2.44850       -0.03040
H          4.03210        2.61710       -1.16850
H          3.82860        3.55400        4.29220
H          2.26880        2.74560        4.19120
H          2.46810        2.19020        6.49390
H          3.92860        2.90050        6.59110
H          5.41500       -2.54190        7.76380
H          4.10500        0.23370        7.67900
H          2.26230        4.83650        9.62420
H          3.23670        3.50150        8.94070
H          0.91820        3.44230        8.07040
H          1.27140        2.00080        9.04130
H          0.28530        3.30530        9.72070
H          2.08700        3.15340       13.40660
H          3.78730        3.62580       13.46180
H          3.18130        2.86650       15.61950
H          3.96420        1.56850       14.96840
H          5.64570       -3.15400       12.93350
H          5.11600       -2.41840       15.20320
H          4.32700       -0.89510       14.52890
