86

C         -2.26390        5.31770        6.80620
S         -2.90430        6.29600        5.52270
C         -3.20990        4.91950        4.46790
C         -2.82560        3.79440        5.13900
C         -2.29830        4.02120        6.43390
O         -1.96320        2.82410        7.00260
C         -2.36810        1.83980        6.07170
O         -2.86840        2.45180        4.89810
C         -3.81880        5.09180        3.18730
C         -3.70860        4.24250        2.14410
C         -2.79410        3.15250        2.05050
S         -3.12060        1.77450        1.00700
C         -1.61400        0.95860        1.39190
C         -0.92330        1.75670        2.26480
C         -1.56630        2.95250        2.62420
O         -0.75390        3.68050        3.44890
C          0.40050        2.88830        3.63620
O          0.29700        1.68950        2.89160
C         -1.29920       -0.30940        0.83480
C         -0.15000       -0.97170        1.09380
C          0.15540       -2.24030        0.53270
S          1.63070       -3.09760        0.96140
C          1.27360       -4.48780       -0.06020
C          0.05630       -4.26480       -0.63610
C         -0.54660       -3.02760       -0.34000
O         -1.73570       -2.92950       -1.00550
C         -1.80780       -4.09350       -1.80920
O         -0.73910       -4.96640       -1.49730
C          2.06340       -5.68970       -0.11020
C          3.39650       -5.80770       -0.25700
C          4.34620       -4.79560       -0.58320
S          3.94310       -3.14940       -1.04330
C          5.59030       -2.72670       -1.48370
C          6.37320       -3.82770       -1.25730
C          5.69220       -4.96050       -0.78020
O          6.57510       -5.99060       -0.61610
C          7.83400       -5.46790       -0.99660
O          7.70180       -4.11650       -1.39560
C          6.02610       -1.41820       -1.84850
C          5.27820       -0.31260       -2.01110
C          3.83730       -0.22440       -2.00140
S          2.78470       -1.15770       -3.06330
C          1.31000       -0.40410       -2.47210
C          1.66430        0.53120       -1.53840
C          3.04930        0.64230       -1.30540
O          3.27750        1.60120       -0.35920
C          1.99430        2.04350        0.04080
O          0.99610        1.42440       -0.75060
C          0.02710       -0.77940       -2.95690
C         -1.10820       -0.19080       -2.52240
C         -2.40860       -0.55800       -2.96130
S         -3.83700        0.18300       -2.25760
C         -4.95750       -0.74740       -3.24250
C         -4.22030       -1.56570       -4.05050
C         -2.82610       -1.46600       -3.89650
O         -2.20970       -2.34690       -4.74950
C         -3.25840       -2.94100       -5.49220
O         -4.51120       -2.50170       -5.00600
C         -6.38190       -0.61620       -3.15180
C         -7.00980        0.19910       -2.30870
H         -1.91790        5.76800        7.71180
H         -1.50920        1.20110        5.81500
H         -3.15840        1.21460        6.51830
H         -4.43560        5.97340        3.08260
H         -4.34660        4.38620        1.28320
H          1.28600        3.45290        3.30330
H          0.51270        2.64610        4.70550
H         -2.03510       -0.74440        0.17500
H          0.58480       -0.54840        1.76320
H         -1.73860       -3.80760       -2.87070
H         -2.76340       -4.60380       -1.62290
H          1.48060       -6.60020       -0.03980
H          3.83150       -6.79780       -0.20660
H          8.23570       -6.05820       -1.83500
H          8.52790       -5.53020       -0.14370
H          7.10230       -1.33130       -1.92550
H          5.78710        0.63540       -2.13510
H          1.83300        1.78070        1.09800
H          1.92960        3.13460       -0.08470
H         -0.00750       -1.56600       -3.69660
H         -1.05340        0.59690       -1.78570
H         -3.19490       -4.03570       -5.40170
H         -3.15840       -2.65850       -6.55330
H         -6.93050       -1.24790       -3.83850
H         -6.45750        0.82310       -1.62560
H         -8.08260        0.26270       -2.27770
