194

C         -0.92290       -2.75480       -8.96620
C         -0.94940       -1.51860       -8.42890
C         -0.47380       -1.48950       -7.08670
C         -0.38680       -0.39100       -6.21810
C         -0.72030        0.96160       -6.64030
S         -2.27000        1.38450       -7.30200
C         -1.83830        3.05210       -7.47290
C         -2.82910        4.05910       -7.94120
C         -3.80590        4.41940       -6.81900
C         -0.55880        3.24990       -7.05090
Cl         0.24680        4.76460       -7.10650
C          0.07680        2.07050       -6.57820
Cl         1.70690        2.05930       -6.05110
C          0.05800       -0.63850       -4.92670
C          0.51420       -1.91090       -4.49630
C          0.52190       -2.99390       -5.39830
C          1.11070       -4.27400       -5.04750
S          0.75590       -5.06370       -3.54500
C          1.78230       -6.40460       -3.89490
C          1.91380       -7.53650       -2.93710
C          0.58590       -8.27460       -2.76640
C          2.36720       -6.23700       -5.11310
C          1.99980       -5.03050       -5.76470
Cl         2.72110       -4.55450       -7.24510
Cl         3.46030       -7.35770       -5.81540
C         -0.03230       -2.76280       -6.65500
S         -0.29940       -3.95540       -7.89430
C          0.95610       -1.87210       -3.15350
C          0.81460       -0.64350       -2.56760
S          0.13330        0.54860       -3.65220
C          1.19890       -0.21650       -1.27800
S          2.01960       -1.17770       -0.09160
C          2.22360        0.15700        1.01310
C          1.61630        1.30460        0.48300
C          1.05820        1.08490       -0.80700
N          0.48340        2.07520       -1.51990
C          0.45070        3.25380       -0.95600
O         -0.06520        4.28780       -1.60930
C         -0.41260        4.05440       -2.97840
C         -0.82120        5.37380       -3.60330
C          0.99590        3.48510        0.36370
C          0.91930        4.85500        0.96040
N          1.99800        5.08540        1.89830
N          1.55800        2.53090        1.04850
C          2.98600       -0.01260        2.18520
C          3.23370        0.98340        3.08020
C          4.01680        0.82000        4.24150
S          4.03540        2.06390        5.45320
C          4.94520        1.12170        6.59160
C          5.33380       -0.07030        5.99410
C          4.79970       -0.25210        4.67690
N          5.05850       -1.37550        3.97500
C          5.80990       -2.27200        4.55440
O          6.14450       -3.39180        3.90390
C          5.61850       -3.55160        2.58830
C          4.17190       -4.02750        2.60720
C          6.31930       -2.11240        5.89610
C          7.16600       -3.18780        6.50580
N          7.09450       -3.16070        7.95380
N          6.07880       -1.03590        6.58400
C          5.13410        1.53550        7.96460
C          4.14780        2.03180        8.73050
C          2.79860        2.05430        8.19260
C          2.19530        0.97880        7.62120
C          1.16030        1.32230        6.71640
C          0.55860        0.49510        5.75410
C          0.66230       -0.95530        5.77400
S          2.17050       -1.81690        5.85320
C          1.38470       -3.35920        5.83600
C          2.13690       -4.64500        5.89610
C          3.53080       -4.48480        6.48740
C          0.03340       -3.19720        5.75920
Cl        -1.07760       -4.50430        5.72120
C         -0.37980       -1.84080        5.72240
Cl        -2.03170       -1.38660        5.70690
C         -0.12810        1.13520        4.73340
C         -0.37680        2.53130        4.71050
C          0.09550        3.33560        5.76630
C         -0.18910        4.75520        5.85100
S          0.02050        5.83300        4.50400
C         -0.46650        7.21780        5.41910
C         -0.45020        8.58410        4.82750
C          0.92250        9.23800        5.00560
C         -0.76720        6.85130        6.69650
C         -0.61330        5.46100        6.94470
Cl        -1.00900        4.75380        8.45450
Cl        -1.29940        7.94970        7.90280
C          0.91960        2.71680        6.70120
S          1.95270        3.54660        7.83550
C         -1.05330        2.92320        3.53340
C         -1.25430        1.89250        2.65540
S         -0.67980        0.36170        3.28010
C         -1.82190        1.94540        1.36250
S         -1.92190        0.51440        0.38510
C         -2.62880        1.35000       -0.95980
C         -2.80070        2.70230       -0.63640
C         -2.33630        3.03960        0.67000
N         -2.42980        4.30640        1.14060
C         -2.98730        5.17870        0.34350
O         -3.13650        6.45120        0.72160
C         -2.66100        6.82110        2.01200
C         -3.57190        6.34180        3.13400
C         -3.46900        4.83910       -0.97180
C         -4.14970        5.88410       -1.80230
N         -4.15000        5.52870       -3.20880
N         -3.36500        3.62740       -1.43850
C         -2.93920        0.70260       -2.16750
C         -2.74700       -0.62990       -2.36600
C         -2.98570       -1.32820       -3.55880
S         -3.56830       -0.60630       -5.02530
C         -3.50490       -2.08640       -5.92040
C         -3.04870       -3.11970       -5.10010
C         -2.77980       -2.69600       -3.76510
N         -2.42160       -3.57070       -2.80550
C         -2.30140       -4.82170       -3.16760
O         -2.04880       -5.75790       -2.25150
C         -2.01180       -5.33780       -0.88860
C         -0.71790       -4.63100       -0.51130
C         -2.47970       -5.24620       -4.53540
C         -2.23170       -6.66810       -4.95470
N         -0.93390       -6.75440       -5.61650
N         -2.85480       -4.40990       -5.45840
C         -3.92340       -2.11030       -7.28620
C         -3.98400       -3.21550       -8.03190
H         -1.23130       -3.05570       -9.94790
H         -1.30180       -0.64820       -8.95080
H         -3.38540        3.65710       -8.79030
H         -2.29300        4.95240       -8.26550
H         -4.52220        5.15580       -7.17350
H         -3.27470        4.83180       -5.96500
H         -4.34590        3.53250       -6.49650
H          2.67760       -8.22040       -3.31100
H          2.24110       -7.15340       -1.96660
H          0.69440       -9.08120       -2.04550
H         -0.18260       -7.58840       -2.41990
H          0.26880       -8.69270       -3.71740
H          1.37570       -2.70970       -2.62710
H         -1.22440        3.32120       -3.02430
H          0.45850        3.62170       -3.48300
H         -0.89280        5.25140       -4.67910
H         -0.07500        6.13340       -3.38520
H         -1.78750        5.69430       -3.22660
H          0.98090        5.59490        0.15580
H         -0.08820        4.94080        1.41050
H          1.82300        5.92110        2.44330
H          2.06740        4.29770        2.53270
H          3.41340       -0.98910        2.35740
H          2.78610        1.95370        2.91890
H          5.69680       -2.59990        2.05350
H          6.26630       -4.29620        2.12050
H          4.10100       -4.98630        3.11510
H          3.54840       -3.30370        3.12600
H          3.81080       -4.13470        1.58840
H          8.18880       -3.04470        6.11030
H          6.82040       -4.16340        6.14710
H          7.92360       -3.57310        8.36460
H          7.02050       -2.19680        8.26220
H          6.12690        1.39870        8.37110
H          4.34090        2.41270        9.72190
H          2.56300       -0.02240        7.75400
H          2.21090       -5.05820        4.88450
H          1.55200       -5.35180        6.49070
H          4.12230       -3.80230        5.88360
H          3.48040       -4.08460        7.49660
H          4.03880       -5.44470        6.52220
H         -1.20910        9.19110        5.32510
H         -0.68990        8.52320        3.76460
H          1.16670        9.31740        6.06170
H          1.69120        8.64510        4.51550
H          0.92060       10.23450        4.57230
H         -1.37130        3.92330        3.31090
H         -1.64980        6.42460        2.15190
H         -2.62820        7.91300        1.98160
H         -3.60150        5.25560        3.15300
H         -3.19350        6.70200        4.08690
H         -4.58060        6.71990        2.98710
H         -3.63050        6.84030       -1.67100
H         -5.16300        6.01210       -1.37820
H         -4.89550        6.00600       -3.70170
H         -4.28910        4.52690       -3.29510
H         -3.33310        1.32530       -2.95930
H         -2.35970       -1.23940       -1.55840
H         -2.12910       -6.26250       -0.31800
H         -2.86350       -4.67570       -0.70120
H          0.13610       -5.27450       -0.70320
H         -0.61030       -3.72030       -1.09280
H         -0.74450       -4.37640        0.54440
H         -2.20850       -7.31110       -4.07230
H         -3.06760       -6.97610       -5.60450
H         -0.90440       -6.09950       -6.39260
H         -0.80150       -7.68560       -5.99690
H         -4.20110       -1.14770       -7.69690
H         -3.70890       -4.17190       -7.62440
H         -4.30560       -3.17820       -9.05770
