116

C          7.00630       -5.45180        5.36190
S          5.45540       -6.05670        4.97890
C          4.90050       -4.51130        4.37260
C          5.92590       -3.58510        4.49060
S          6.06860       -1.90650        4.08960
C          7.72870       -1.90270        4.65380
C          8.45040       -0.62770        4.54360
O          7.93570        0.37610        4.11310
O          9.70590       -0.72320        4.97580
C         10.50930        0.45490        4.88900
C         11.08440        0.63230        3.49130
C          8.13390       -3.11780        5.12350
C          7.12260       -4.11850        5.04860
F          9.34820       -3.37370        5.60700
C          3.61710       -4.26970        3.83670
S          3.25120       -2.65360        3.30980
C          1.64550       -3.07830        2.76250
C          1.43010       -4.42840        3.00510
S          0.07260       -5.45950        2.70600
C          0.94200       -6.81290        3.38880
C          0.28650       -8.12380        3.44780
O          0.78700       -9.13400        3.86870
O         -0.96270       -8.02390        2.97280
C         -1.74250       -9.21870        2.94280
C         -1.47530      -10.02220        1.67840
C          2.19830       -6.47530        3.81250
C          2.52090       -5.10790        3.61040
F          3.03820       -7.34740        4.36580
C          0.78730       -2.16070        2.13130
S         -0.71910       -2.71600        1.45330
C         -1.11710       -1.14580        0.78970
C         -0.11280       -0.24320        1.12290
S          0.09340        1.44240        0.78290
C          1.59990        1.44100        1.66380
C          2.36050        2.69620        1.75700
O          1.98880        3.73710        1.27040
O          3.48970        2.52530        2.43580
C          4.33870        3.66080        2.60870
C          5.31690        3.35260        3.72710
C          1.91060        0.21150        2.17730
C          0.95310       -0.79190        1.87990
F          3.00460       -0.00800        2.90660
C         -2.25340       -0.88300        0.00650
S         -2.43440        0.70740       -0.67610
C         -3.90740        0.29620       -1.52500
C         -4.23070       -1.02600       -1.25110
S         -5.54340       -2.03470       -1.76210
C         -4.89620       -3.36250       -0.82980
C         -5.62420       -4.63570       -0.84840
O         -6.64560       -4.81100       -1.46710
O         -5.01810       -5.55970       -0.10360
C         -5.63390       -6.84610       -0.04750
C         -4.90890       -7.66200        1.00620
C         -3.73970       -3.03330       -0.17560
C         -3.32010       -1.69800       -0.39370
F         -3.07520       -3.89090        0.60020
C         -4.56390        1.20050       -2.38160
S         -5.93660        0.67290       -3.31810
C         -6.08370        2.20420       -4.15000
C         -5.12440        3.07920       -3.68210
S         -4.81180        4.75900       -3.98990
C         -3.52590        4.74570       -2.81520
C         -2.76500        5.98300       -2.58390
O         -3.01060        7.02880       -3.13470
O         -1.79050        5.78910       -1.70070
C         -0.96320        6.90460       -1.36730
C         -0.30090        6.62390       -0.03090
C         -3.36400        3.52440       -2.22120
C         -4.26910        2.53490       -2.68190
F         -2.45270        3.30620       -1.27180
C         -7.09440        2.41450       -5.12810
S         -8.69530        1.76110       -4.92410
C         -9.27550        2.48660       -6.37190
C         -8.28690        3.18670       -6.99190
S         -8.20000        4.08870       -8.47900
C         -6.48570        4.34250       -8.23280
C         -5.76250        5.09370       -9.26620
O         -6.30150        5.55040      -10.24500
O         -4.46270        5.19140       -8.98780
C         -3.66040        5.94140       -9.89980
C         -3.72330        7.43040       -9.59240
C         -6.02510        3.79080       -7.07080
C         -7.03170        3.14500       -6.30640
F         -4.74150        3.79680       -6.71140
H          7.74650       -6.09690        5.79070
H          9.89730        1.32130        5.16100
H         11.30030        0.30710        5.62630
H         11.64680       -0.25220        3.20210
H         10.28170        0.79250        2.77550
H         11.74510        1.49420        3.47750
H         -2.77960       -8.88010        2.98470
H         -1.50530       -9.81710        3.82860
H         -2.13220      -10.88660        1.65140
H         -1.65490       -9.41020        0.79770
H         -0.44330      -10.36420        1.66630
H          4.86210        3.84940        1.66440
H          3.71810        4.53470        2.83760
H          5.88860        2.45820        3.49420
H          5.99760        4.18900        3.85540
H          4.78060        3.18420        4.65700
H         -5.56090       -7.31410       -1.03600
H         -6.69590       -6.72270        0.19240
H         -5.02300       -7.19650        1.98140
H         -3.84960       -7.70780        0.76910
H         -5.31750       -8.66780        1.03720
H         -0.21700        7.02950       -2.16040
H         -1.58420        7.80710       -1.33370
H          0.36330        7.44450        0.22410
H          0.27250        5.70200       -0.07600
H         -1.05350        6.52120        0.74610
H        -10.29320        2.34930       -6.67260
H         -4.00720        5.74720      -10.92030
H         -2.64890        5.55300       -9.76630
H         -3.44050        7.61050       -8.55800
H         -3.04250        7.96630      -10.24740
H         -4.73260        7.80150       -9.75340
