104

C          7.83350        3.60180       -1.21630
S          8.64850        2.90340       -2.55540
C          7.22710        2.09460       -3.03990
C          6.16430        2.34300       -2.21360
C          4.84000        1.74010       -2.45600
O          3.95880        1.68100       -1.61440
O          4.72430        1.25220       -3.66700
C          6.53000        3.21820       -1.14430
S          5.46620        3.91730        0.08740
C          4.92240        2.49240        0.92980
C          4.10060        2.49910        1.99000
C          3.54570        3.63710        2.64820
S          3.89390        5.27880        2.17970
C          2.90990        5.89750        3.42730
C          2.34620        4.91550        4.19990
C          1.53700        5.27860        5.37560
O          1.03170        6.36170        5.53440
O          1.44010        4.30230        6.28850
C          2.69710        3.61700        3.73710
S          2.07870        2.10810        4.41840
C          0.38310        2.48740        4.41680
C         -0.54710        1.74660        5.03400
C         -1.93700        2.07280        5.02280
S         -2.54200        3.52110        4.25740
C         -4.14750        3.13430        4.68830
C         -4.24430        1.95350        5.37460
C         -5.55920        1.44730        5.80190
O         -6.57990        2.08490        5.71880
O         -5.52960        0.19950        6.28010
C         -2.97190        1.34570        5.56620
S         -2.69860       -0.19330        6.40290
C         -2.62800       -1.29750        5.06160
C         -2.63460       -0.95220        3.76510
C         -2.57730       -1.84090        2.66470
S         -2.57760       -3.57000        2.75260
C         -2.51110       -3.77060        1.02390
C         -2.48440       -2.51720        0.40190
C         -2.50910       -1.43700        1.33240
N         -2.43800       -0.14720        0.93000
C         -2.34420        0.05060       -0.35660
O         -2.24000        1.29160       -0.83380
C         -2.21600        2.33130        0.14070
C         -2.04000        3.65570       -0.57800
C         -2.35120       -1.03050       -1.31270
C         -2.25940       -0.72160       -2.78450
N         -2.60870       -1.80880       -3.67590
N         -2.41810       -2.27270       -0.93030
C         -2.43090       -5.06190        0.45590
C         -2.47860       -5.27030       -0.88190
C         -2.24680       -6.50050       -1.54040
S         -1.85810       -7.97720       -0.69330
C         -1.66800       -8.82240       -2.16090
C         -1.89950       -8.04290       -3.26720
C         -1.89030       -8.60220       -4.62210
O         -2.24210       -8.03870       -5.62840
O         -1.45860       -9.87700       -4.64170
C         -2.21560       -6.70230       -2.91000
S         -2.61150       -5.35320       -3.97250
C         -1.33510       -5.33120       -5.21090
C         -0.30720       -4.48490       -5.17990
C          0.10880       -3.63010       -4.09740
S         -0.01450       -4.11310       -2.42520
C          0.81390       -2.72140       -1.90540
C          1.17170       -1.90230       -2.94370
C          1.96190       -0.67880       -2.80550
O          2.50060       -0.14370       -3.76190
O          2.06670       -0.22870       -1.57090
C          0.75180       -2.41940       -4.20450
S          0.96100       -1.55830       -5.71650
C         -0.63310       -1.83270       -6.43710
C         -0.84160       -1.76610       -7.73960
H          8.34910        4.26560       -0.55210
H          7.22590        1.46670       -3.90850
H          3.84090        0.78770       -3.80160
H          5.29490        1.56720        0.52630
H          3.82240        1.54690        2.42180
H          2.80140        6.95400        3.57080
H          0.92690        4.61020        7.05140
H          0.11930        3.38040        3.86890
H         -0.26800        0.85420        5.57540
H         -4.95840        3.78010        4.41630
H         -6.42000       -0.07530        6.54900
H         -2.56530       -2.32390        5.38650
H         -2.68090        0.08600        3.46660
H         -3.15270        2.30660        0.71020
H         -1.39260        2.14250        0.83960
H         -2.86130        3.81800       -1.27070
H         -1.10890        3.65610       -1.13790
H         -2.02090        4.46400        0.14720
H         -2.88760        0.14560       -3.00530
H         -1.22300       -0.42310       -2.99300
H         -2.17810       -2.66670       -3.34290
H         -3.61040       -1.97150       -3.65030
H         -2.30710       -5.89320        1.13840
H         -2.67210       -4.42370       -1.52310
H         -1.41650       -9.86390       -2.15490
H         -1.49830      -10.21640       -5.54940
H         -1.52590       -5.96950       -6.05710
H          0.32580       -4.42400       -6.05940
H          1.01020       -2.56630       -0.86320
H          2.67650        0.56240       -1.52780
H         -1.41930       -1.97780       -5.70960
H         -0.04080       -1.60000       -8.43980
H         -1.83260       -1.87100       -8.14550
