124

C          7.09180       -3.86210        5.57970
S          5.64310       -4.15240        6.43810
C          4.65020       -3.40060        5.20740
C          5.46930       -2.94930        4.18570
S          5.16930       -2.14520        2.67980
C          6.88350       -2.16810        2.30850
C          7.33010       -1.59410        1.03320
O          8.47100       -1.53470        0.65470
O          6.27270       -1.15040        0.34410
C          6.53240       -0.57100       -0.93510
C          5.22420       -0.48760       -1.69850
C          7.62930       -2.75010        3.29100
C          6.85280       -3.21630        4.39150
F          8.95030       -2.88960        3.25110
C          3.24320       -3.28590        5.27280
S          2.42960       -2.36190        4.04180
C          0.83600       -2.67480        4.70160
C          0.95940       -3.47150        5.82740
S         -0.19690       -4.25640        6.85320
C          1.08890       -5.00600        7.75790
C          0.70310       -5.86940        8.88050
O         -0.44560       -6.13810        9.13580
O          1.76190       -6.29240        9.57200
C          1.50460       -7.15310       10.68140
C          1.35620       -8.60080       10.23660
C          2.32920       -4.68050        7.28440
C          2.30320       -3.81530        6.16010
F          3.45810       -5.15060        7.81990
C         -0.27880       -2.17490        3.99220
S         -0.08310       -1.87000        2.28320
C         -1.74550       -1.37360        2.06660
C         -2.40050       -1.45220        3.28240
S         -4.01210       -1.05430        3.75110
C         -3.60360       -1.35780        5.42510
C         -4.65710       -1.17250        6.42660
O         -5.79380       -0.87450        6.13780
O         -4.21060       -1.36560        7.66530
C         -5.16240       -1.26300        8.72400
C         -5.91750       -2.57050        8.91340
C         -2.30680       -1.75890        5.59100
C         -1.58540       -1.86570        4.37460
F         -1.74980       -1.96110        6.78460
C         -2.18960       -0.93030        0.80770
S         -1.02490       -0.70200       -0.46180
C         -2.20760       -0.14670       -1.60230
C         -3.47710       -0.15890       -1.00350
C         -3.47470       -0.59880        0.35430
N         -4.62240       -0.67770        1.06860
C         -5.72300       -0.34860        0.43640
O         -6.92520       -0.42090        0.99240
C         -7.04630       -0.79360        2.36580
C         -6.90530        0.41620        3.27610
C         -5.72140        0.11620       -0.93450
C         -7.01530        0.52690       -1.56370
N         -6.87330        0.76290       -2.98350
N         -4.61940        0.21610       -1.61480
C         -1.80260        0.24690       -2.88930
C         -2.66910        0.66620       -3.85640
C         -2.34080        1.14370       -5.13860
S         -3.66510        1.74900       -6.10340
C         -2.63530        2.23960       -7.42200
C         -1.32790        1.91080       -7.12290
S          0.13020        2.00480       -8.05750
C          1.01270        1.23830       -6.76690
C          2.44690        1.01520       -6.96950
O          3.02630        1.32800       -7.98140
O          3.01500        0.42170       -5.91570
C          4.41530        0.16330       -5.99960
C          5.23140        1.39290       -5.62690
C          0.22110        0.93050       -5.69280
C         -1.14120        1.28830       -5.85350
F          0.71100        0.32710       -4.60730
C         -3.16950        2.83660       -8.59650
S         -4.68680        2.29610       -9.26140
C         -4.58230        3.36100      -10.60840
C         -3.44570        4.10600      -10.54740
S         -2.78450        5.37270      -11.54250
C         -1.47670        5.59560      -10.40020
C         -0.50510        6.65340      -10.69870
O         -0.57220        7.34630      -11.68520
O          0.43000        6.75160       -9.75340
C          1.45290        7.72550       -9.95900
C          2.54990        7.19110      -10.86810
C         -1.53690        4.73180       -9.34310
C         -2.63390        3.83310       -9.40070
F         -0.68720        4.76580       -8.31620
H          8.03200       -4.18080        5.98230
H          7.26850       -1.19100       -1.45900
H          6.96870        0.42320       -0.78490
H          5.39800       -0.02930       -2.66740
H          4.80780       -1.48070       -1.84320
H          4.50510        0.10940       -1.14460
H          0.59370       -6.81590       11.18740
H          2.36750       -7.02800       11.33830
H          1.23190       -9.23760       11.10760
H          2.24000       -8.91590        9.68730
H          0.48370       -8.70570        9.59620
H         -4.57150       -1.01760        9.60830
H         -5.85890       -0.44860        8.49770
H         -6.51030       -2.78980        8.02850
H         -6.58040       -2.48730        9.76980
H         -5.21690       -3.38480        9.08150
H         -8.04570       -1.22670        2.44790
H         -6.29500       -1.54880        2.60140
H         -6.90170        0.09100        4.31170
H         -5.96660        0.92420        3.06950
H         -7.72560        1.11120        3.11470
H         -7.74520       -0.27610       -1.41090
H         -7.38470        1.40060       -0.99320
H         -7.69810        1.21930       -3.35410
H         -6.06630        1.35000       -3.16030
H         -0.74090        0.21120       -3.06790
H         -3.72340        0.65880       -3.61580
H          4.58880       -0.65610       -5.29890
H          4.65730       -0.15610       -7.01860
H          6.28790        1.14010       -5.61680
H          5.06590        2.18250       -6.35570
H          4.93940        1.75420       -4.64340
H         -5.35640        3.37330      -11.34690
H          1.83710        7.94150       -8.96030
H          1.00380        8.62550      -10.39260
H          3.34910        7.92280      -10.94330
H          2.15030        7.00250      -11.86170
H          2.95040        6.26380      -10.46540
