
  xtb     03012204533D
 energy: -351.009251688434 gnorm: 0.000250856509 xtb: 6.4.1 (unknown)
194211  0     0  0            999 V2000
   -4.0688   -6.3669   -6.4801 C   0  0  0  0  0  0  0  0  0  0  0  0
   -4.7786   -5.3897   -7.0804 C   0  0  0  0  0  0  0  0  0  0  0  0
   -4.9341   -4.2353   -6.2593 C   0  0  0  0  0  0  0  0  0  0  0  0
   -5.6053   -3.0380   -6.5515 C   0  0  0  0  0  0  0  0  0  0  0  0
   -6.2121   -2.7840   -7.8494 C   0  0  0  0  0  0  0  0  0  0  0  0
   -5.2708   -2.8775   -9.3095 S   0  0  0  0  0  0  0  0  0  0  0  0
   -6.5987   -2.3659  -10.2958 C   0  0  0  0  0  0  0  0  0  0  0  0
   -6.4432   -2.1740  -11.7641 C   0  0  0  0  0  0  0  0  0  0  0  0
   -5.9073   -0.7759  -12.0824 C   0  0  0  0  0  0  0  0  0  0  0  0
   -7.6963   -2.1343   -9.5226 C   0  0  0  0  0  0  0  0  0  0  0  0
   -9.2076   -1.6019  -10.1400 Cl  0  0  0  0  0  0  0  0  0  0  0  0
   -7.4832   -2.3739   -8.1378 C   0  0  0  0  0  0  0  0  0  0  0  0
   -8.7397   -2.2299   -6.9825 Cl  0  0  0  0  0  0  0  0  0  0  0  0
   -5.6329   -2.0665   -5.5602 C   0  0  0  0  0  0  0  0  0  0  0  0
   -4.9991   -2.2315   -4.3025 C   0  0  0  0  0  0  0  0  0  0  0  0
   -4.3034   -3.4192   -4.0202 C   0  0  0  0  0  0  0  0  0  0  0  0
   -3.5877   -3.5834   -2.7640 C   0  0  0  0  0  0  0  0  0  0  0  0
   -3.9174   -4.8996   -1.6787 S   0  0  0  0  0  0  0  0  0  0  0  0
   -2.7428   -4.3499   -0.5310 C   0  0  0  0  0  0  0  0  0  0  0  0
   -2.4708   -5.1180    0.7147 C   0  0  0  0  0  0  0  0  0  0  0  0
   -1.5825   -6.3300    0.4247 C   0  0  0  0  0  0  0  0  0  0  0  0
   -2.1300   -3.2194   -0.9824 C   0  0  0  0  0  0  0  0  0  0  0  0
   -2.6090   -2.7825   -2.2464 C   0  0  0  0  0  0  0  0  0  0  0  0
   -1.9492   -1.4269   -3.0622 Cl  0  0  0  0  0  0  0  0  0  0  0  0
   -0.9050   -2.3724   -0.1227 Cl  0  0  0  0  0  0  0  0  0  0  0  0
   -4.3119   -4.4039   -4.9997 C   0  0  0  0  0  0  0  0  0  0  0  0
   -3.5384   -5.9602   -4.8841 S   0  0  0  0  0  0  0  0  0  0  0  0
   -5.1692   -1.0952   -3.4770 C   0  0  0  0  0  0  0  0  0  0  0  0
   -5.8692   -0.0902   -4.0832 C   0  0  0  0  0  0  0  0  0  0  0  0
   -6.3735   -0.4974   -5.7064 S   0  0  0  0  0  0  0  0  0  0  0  0
   -6.1744    1.2036   -3.6041 C   0  0  0  0  0  0  0  0  0  0  0  0
   -5.6646    1.8277   -2.0722 S   0  0  0  0  0  0  0  0  0  0  0  0
   -6.2613    3.4247   -2.4074 C   0  0  0  0  0  0  0  0  0  0  0  0
   -6.9027    3.4406   -3.6437 C   0  0  0  0  0  0  0  0  0  0  0  0
   -6.8285    2.1905   -4.3273 C   0  0  0  0  0  0  0  0  0  0  0  0
   -7.3404    2.0154   -5.5631 N   0  0  0  0  0  0  0  0  0  0  0  0
   -7.9303    3.0521   -6.0990 C   0  0  0  0  0  0  0  0  0  0  0  0
   -8.5175    2.9628   -7.2838 O   0  0  0  0  0  0  0  0  0  0  0  0
   -8.4294    1.7147   -7.9679 C   0  0  0  0  0  0  0  0  0  0  0  0
   -7.0842    1.5413   -8.6580 C   0  0  0  0  0  0  0  0  0  0  0  0
   -8.0040    4.3282   -5.4147 C   0  0  0  0  0  0  0  0  0  0  0  0
   -8.6264    5.5058   -6.1067 C   0  0  0  0  0  0  0  0  0  0  0  0
   -7.6824    6.0076   -7.0997 N   0  0  0  0  0  0  0  0  0  0  0  0
   -7.4994    4.5068   -4.2314 N   0  0  0  0  0  0  0  0  0  0  0  0
   -6.1467    4.5226   -1.4968 C   0  0  0  0  0  0  0  0  0  0  0  0
   -5.1691    4.7254   -0.5915 C   0  0  0  0  0  0  0  0  0  0  0  0
   -3.9572    3.9530   -0.5037 C   0  0  0  0  0  0  0  0  0  0  0  0
   -3.2119    3.4608   -1.5326 C   0  0  0  0  0  0  0  0  0  0  0  0
   -2.1002    2.6878   -1.1224 C   0  0  0  0  0  0  0  0  0  0  0  0
   -1.2001    1.9666   -1.9299 C   0  0  0  0  0  0  0  0  0  0  0  0
   -1.3531    1.9164   -3.3749 C   0  0  0  0  0  0  0  0  0  0  0  0
   -2.8874    1.5015   -4.0816 S   0  0  0  0  0  0  0  0  0  0  0  0
   -2.2557    1.5162   -5.6870 C   0  0  0  0  0  0  0  0  0  0  0  0
   -3.1087    1.1334   -6.8460 C   0  0  0  0  0  0  0  0  0  0  0  0
   -2.9333   -0.3508   -7.1773 C   0  0  0  0  0  0  0  0  0  0  0  0
   -0.9322    1.8408   -5.6654 C   0  0  0  0  0  0  0  0  0  0  0  0
    0.0342    1.9787   -7.0760 Cl  0  0  0  0  0  0  0  0  0  0  0  0
   -0.4179    2.0711   -4.3615 C   0  0  0  0  0  0  0  0  0  0  0  0
    1.1936    2.5859   -4.0966 Cl  0  0  0  0  0  0  0  0  0  0  0  0
   -0.2192    1.2292   -1.2800 C   0  0  0  0  0  0  0  0  0  0  0  0
   -0.0998    1.2011    0.1352 C   0  0  0  0  0  0  0  0  0  0  0  0
   -0.9719    1.9566    0.9399 C   0  0  0  0  0  0  0  0  0  0  0  0
   -0.8173    1.9868    2.3841 C   0  0  0  0  0  0  0  0  0  0  0  0
   -0.7216    0.5312    3.3329 S   0  0  0  0  0  0  0  0  0  0  0  0
   -0.5225    1.4097    4.8135 C   0  0  0  0  0  0  0  0  0  0  0  0
   -0.3595    0.7014    6.1138 C   0  0  0  0  0  0  0  0  0  0  0  0
    0.7642   -0.3343    6.0687 C   0  0  0  0  0  0  0  0  0  0  0  0
   -0.5388    2.7503    4.5688 C   0  0  0  0  0  0  0  0  0  0  0  0
   -0.7025    3.0803    3.1959 C   0  0  0  0  0  0  0  0  0  0  0  0
   -0.6554    4.6991    2.6349 Cl  0  0  0  0  0  0  0  0  0  0  0  0
   -0.3854    3.9609    5.7733 Cl  0  0  0  0  0  0  0  0  0  0  0  0
   -1.9688    2.6697    0.2879 C   0  0  0  0  0  0  0  0  0  0  0  0
   -3.2472    3.5708    1.0516 S   0  0  0  0  0  0  0  0  0  0  0  0
    0.9594    0.3707    0.5549 C   0  0  0  0  0  0  0  0  0  0  0  0
    1.6187   -0.2327   -0.4822 C   0  0  0  0  0  0  0  0  0  0  0  0
    0.9722    0.2072   -2.0418 S   0  0  0  0  0  0  0  0  0  0  0  0
    2.7691   -1.0427   -0.4021 C   0  0  0  0  0  0  0  0  0  0  0  0
    3.4695   -1.5254    1.1092 S   0  0  0  0  0  0  0  0  0  0  0  0
    4.9048   -2.1486    0.3648 C   0  0  0  0  0  0  0  0  0  0  0  0
    4.7931   -2.0500   -1.0332 C   0  0  0  0  0  0  0  0  0  0  0  0
    3.5931   -1.4172   -1.4584 C   0  0  0  0  0  0  0  0  0  0  0  0
    3.3310   -1.1764   -2.7600 N   0  0  0  0  0  0  0  0  0  0  0  0
    4.2370   -1.5844   -3.6097 C   0  0  0  0  0  0  0  0  0  0  0  0
    4.0642   -1.3866   -4.9140 O   0  0  0  0  0  0  0  0  0  0  0  0
    2.8584   -0.7233   -5.2947 C   0  0  0  0  0  0  0  0  0  0  0  0
    2.8240   -0.6383   -6.8085 C   0  0  0  0  0  0  0  0  0  0  0  0
    5.4473   -2.2518   -3.1921 C   0  0  0  0  0  0  0  0  0  0  0  0
    6.4409   -2.6800   -4.2275 C   0  0  0  0  0  0  0  0  0  0  0  0
    7.3714   -3.6615   -3.7077 N   0  0  0  0  0  0  0  0  0  0  0  0
    5.7119   -2.4600   -1.9323 N   0  0  0  0  0  0  0  0  0  0  0  0
    5.9806   -2.7560    1.0381 C   0  0  0  0  0  0  0  0  0  0  0  0
    6.2734   -2.8185    2.3674 C   0  0  0  0  0  0  0  0  0  0  0  0
    5.7218   -2.1306    3.4748 C   0  0  0  0  0  0  0  0  0  0  0  0
    5.8964   -2.8819    5.0435 S   0  0  0  0  0  0  0  0  0  0  0  0
    5.1305   -1.5838    5.9021 C   0  0  0  0  0  0  0  0  0  0  0  0
    4.7634   -0.5834    4.9898 C   0  0  0  0  0  0  0  0  0  0  0  0
    5.1237   -0.8764    3.6389 C   0  0  0  0  0  0  0  0  0  0  0  0
    4.9529    0.0483    2.6653 N   0  0  0  0  0  0  0  0  0  0  0  0
    4.3745    1.1706    3.0099 C   0  0  0  0  0  0  0  0  0  0  0  0
    4.1624    2.1431    2.1259 O   0  0  0  0  0  0  0  0  0  0  0  0
    4.6161    1.9574    0.7863 C   0  0  0  0  0  0  0  0  0  0  0  0
    3.7229    2.7663   -0.1379 C   0  0  0  0  0  0  0  0  0  0  0  0
    3.9343    1.4323    4.3555 C   0  0  0  0  0  0  0  0  0  0  0  0
    3.2403    2.7244    4.6981 C   0  0  0  0  0  0  0  0  0  0  0  0
    3.0335    2.9420    6.1132 N   0  0  0  0  0  0  0  0  0  0  0  0
    4.1478    0.5727    5.3118 N   0  0  0  0  0  0  0  0  0  0  0  0
    5.0202   -1.6444    7.3019 C   0  0  0  0  0  0  0  0  0  0  0  0
    4.5055   -0.6726    8.1077 C   0  0  0  0  0  0  0  0  0  0  0  0
    4.4970   -0.7637    9.5113 C   0  0  0  0  0  0  0  0  0  0  0  0
    5.1166   -2.1496   10.3693 S   0  0  0  0  0  0  0  0  0  0  0  0
    4.8175   -1.4688   11.9317 C   0  0  0  0  0  0  0  0  0  0  0  0
    4.2613   -0.1974   11.7962 C   0  0  0  0  0  0  0  0  0  0  0  0
    4.0684    0.1952   10.4360 C   0  0  0  0  0  0  0  0  0  0  0  0
    3.5250    1.3929   10.1205 N   0  0  0  0  0  0  0  0  0  0  0  0
    3.2127    2.1685   11.1250 C   0  0  0  0  0  0  0  0  0  0  0  0
    2.6849    3.3764   10.9272 O   0  0  0  0  0  0  0  0  0  0  0  0
    2.3893    3.7529    9.5838 C   0  0  0  0  0  0  0  0  0  0  0  0
    1.1272    3.0781    9.0708 C   0  0  0  0  0  0  0  0  0  0  0  0
    3.4339    1.7906   12.5025 C   0  0  0  0  0  0  0  0  0  0  0  0
    3.0979    2.7687   13.5846 C   0  0  0  0  0  0  0  0  0  0  0  0
    3.1428    2.1586   14.8959 N   0  0  0  0  0  0  0  0  0  0  0  0
    3.9433    0.6378   12.8141 N   0  0  0  0  0  0  0  0  0  0  0  0
    5.1401   -2.2127   13.1097 C   0  0  0  0  0  0  0  0  0  0  0  0
    4.8474   -1.8191   14.3510 C   0  0  0  0  0  0  0  0  0  0  0  0
   -3.8122   -7.3310   -6.8734 H   0  0  0  0  0  0  0  0  0  0  0  0
   -5.1899   -5.4719   -8.0697 H   0  0  0  0  0  0  0  0  0  0  0  0
   -7.4162   -2.3089  -12.2402 H   0  0  0  0  0  0  0  0  0  0  0  0
   -5.7541   -2.9240  -12.1557 H   0  0  0  0  0  0  0  0  0  0  0  0
   -4.9448   -0.6217  -11.6005 H   0  0  0  0  0  0  0  0  0  0  0  0
   -6.5995   -0.0161  -11.7289 H   0  0  0  0  0  0  0  0  0  0  0  0
   -5.7830   -0.6605  -13.1556 H   0  0  0  0  0  0  0  0  0  0  0  0
   -3.4144   -5.4566    1.1468 H   0  0  0  0  0  0  0  0  0  0  0  0
   -1.9744   -4.4590    1.4291 H   0  0  0  0  0  0  0  0  0  0  0  0
   -2.0683   -6.9899   -0.2900 H   0  0  0  0  0  0  0  0  0  0  0  0
   -0.6307   -6.0085    0.0095 H   0  0  0  0  0  0  0  0  0  0  0  0
   -1.3942   -6.8833    1.3408 H   0  0  0  0  0  0  0  0  0  0  0  0
   -4.7922   -1.0138   -2.4740 H   0  0  0  0  0  0  0  0  0  0  0  0
   -9.2397    1.7439   -8.6996 H   0  0  0  0  0  0  0  0  0  0  0  0
   -8.5933    0.8988   -7.2573 H   0  0  0  0  0  0  0  0  0  0  0  0
   -7.0899    0.6205   -9.2335 H   0  0  0  0  0  0  0  0  0  0  0  0
   -6.2924    1.4835   -7.9169 H   0  0  0  0  0  0  0  0  0  0  0  0
   -6.8927    2.3812   -9.3212 H   0  0  0  0  0  0  0  0  0  0  0  0
   -9.5246    5.1795   -6.6370 H   0  0  0  0  0  0  0  0  0  0  0  0
   -8.9003    6.2476   -5.3403 H   0  0  0  0  0  0  0  0  0  0  0  0
   -6.8476    6.3527   -6.6368 H   0  0  0  0  0  0  0  0  0  0  0  0
   -8.0952    6.7769   -7.6151 H   0  0  0  0  0  0  0  0  0  0  0  0
   -6.9463    5.2472   -1.5793 H   0  0  0  0  0  0  0  0  0  0  0  0
   -5.2725    5.5337    0.1196 H   0  0  0  0  0  0  0  0  0  0  0  0
   -3.4510    3.6564   -2.5619 H   0  0  0  0  0  0  0  0  0  0  0  0
   -2.8324    1.7367   -7.7134 H   0  0  0  0  0  0  0  0  0  0  0  0
   -4.1537    1.3299   -6.5990 H   0  0  0  0  0  0  0  0  0  0  0  0
   -3.6008   -0.6367   -7.9859 H   0  0  0  0  0  0  0  0  0  0  0  0
   -3.1603   -0.9621   -6.3070 H   0  0  0  0  0  0  0  0  0  0  0  0
   -1.9091   -0.5509   -7.4809 H   0  0  0  0  0  0  0  0  0  0  0  0
   -1.2962    0.1964    6.3678 H   0  0  0  0  0  0  0  0  0  0  0  0
   -0.1590    1.4470    6.8848 H   0  0  0  0  0  0  0  0  0  0  0  0
    1.7134    0.1272    5.8071 H   0  0  0  0  0  0  0  0  0  0  0  0
    0.8725   -0.8118    7.0392 H   0  0  0  0  0  0  0  0  0  0  0  0
    0.5418   -1.0994    5.3282 H   0  0  0  0  0  0  0  0  0  0  0  0
    1.2505    0.2211    1.5787 H   0  0  0  0  0  0  0  0  0  0  0  0
    2.0027   -1.2842   -4.9026 H   0  0  0  0  0  0  0  0  0  0  0  0
    2.8408    0.2717   -4.8372 H   0  0  0  0  0  0  0  0  0  0  0  0
    1.9239   -0.1185   -7.1218 H   0  0  0  0  0  0  0  0  0  0  0  0
    3.6920   -0.0951   -7.1727 H   0  0  0  0  0  0  0  0  0  0  0  0
    2.8297   -1.6347   -7.2425 H   0  0  0  0  0  0  0  0  0  0  0  0
    5.8999   -3.1119   -5.0778 H   0  0  0  0  0  0  0  0  0  0  0  0
    6.9284   -1.7591   -4.5983 H   0  0  0  0  0  0  0  0  0  0  0  0
    8.2482   -3.6351   -4.2140 H   0  0  0  0  0  0  0  0  0  0  0  0
    7.5489   -3.4644   -2.7285 H   0  0  0  0  0  0  0  0  0  0  0  0
    6.6412   -3.2882    0.3642 H   0  0  0  0  0  0  0  0  0  0  0  0
    7.0473   -3.5253    2.6454 H   0  0  0  0  0  0  0  0  0  0  0  0
    4.5882    0.8944    0.5386 H   0  0  0  0  0  0  0  0  0  0  0  0
    5.6569    2.2981    0.7250 H   0  0  0  0  0  0  0  0  0  0  0  0
    3.7865    3.8235    0.1052 H   0  0  0  0  0  0  0  0  0  0  0  0
    2.6890    2.4485   -0.0304 H   0  0  0  0  0  0  0  0  0  0  0  0
    4.0321    2.6171   -1.1685 H   0  0  0  0  0  0  0  0  0  0  0  0
    3.8286    3.5540    4.2922 H   0  0  0  0  0  0  0  0  0  0  0  0
    2.2688    2.7456    4.1912 H   0  0  0  0  0  0  0  0  0  0  0  0
    2.4681    2.1902    6.4939 H   0  0  0  0  0  0  0  0  0  0  0  0
    3.9286    2.9005    6.5911 H   0  0  0  0  0  0  0  0  0  0  0  0
    5.4150   -2.5419    7.7638 H   0  0  0  0  0  0  0  0  0  0  0  0
    4.1050    0.2337    7.6790 H   0  0  0  0  0  0  0  0  0  0  0  0
    2.2623    4.8365    9.6242 H   0  0  0  0  0  0  0  0  0  0  0  0
    3.2367    3.5015    8.9407 H   0  0  0  0  0  0  0  0  0  0  0  0
    0.9182    3.4423    8.0704 H   0  0  0  0  0  0  0  0  0  0  0  0
    1.2714    2.0008    9.0413 H   0  0  0  0  0  0  0  0  0  0  0  0
    0.2853    3.3053    9.7207 H   0  0  0  0  0  0  0  0  0  0  0  0
    2.0870    3.1534   13.4066 H   0  0  0  0  0  0  0  0  0  0  0  0
    3.7873    3.6258   13.4618 H   0  0  0  0  0  0  0  0  0  0  0  0
    3.1813    2.8665   15.6195 H   0  0  0  0  0  0  0  0  0  0  0  0
    3.9642    1.5685   14.9684 H   0  0  0  0  0  0  0  0  0  0  0  0
    5.6457   -3.1540   12.9335 H   0  0  0  0  0  0  0  0  0  0  0  0
    5.1160   -2.4184   15.2032 H   0  0  0  0  0  0  0  0  0  0  0  0
    4.3270   -0.8951   14.5289 H   0  0  0  0  0  0  0  0  0  0  0  0
  1  2  2  0  0  0  0
  2  3  1  0  0  0  0
  3  4  2  0  0  0  0
  4  5  1  0  0  0  0
  5  6  1  0  0  0  0
  6  7  1  0  0  0  0
  7  8  1  0  0  0  0
  8  9  1  0  0  0  0
  7 10  2  0  0  0  0
 10 11  1  0  0  0  0
 10 12  1  0  0  0  0
 12 13  1  0  0  0  0
  4 14  1  0  0  0  0
 14 15  2  0  0  0  0
 15 16  1  0  0  0  0
 16 17  1  0  0  0  0
 17 18  1  0  0  0  0
 18 19  1  0  0  0  0
 19 20  1  0  0  0  0
 20 21  1  0  0  0  0
 19 22  2  0  0  0  0
 22 23  1  0  0  0  0
 23 24  1  0  0  0  0
 22 25  1  0  0  0  0
 16 26  2  0  0  0  0
 26 27  1  0  0  0  0
 15 28  1  0  0  0  0
 28 29  2  0  0  0  0
 29 30  1  0  0  0  0
 29 31  1  0  0  0  0
 31 32  1  0  0  0  0
 32 33  1  0  0  0  0
 33 34  2  0  0  0  0
 34 35  1  0  0  0  0
 35 36  1  0  0  0  0
 36 37  2  0  0  0  0
 37 38  1  0  0  0  0
 38 39  1  0  0  0  0
 39 40  1  0  0  0  0
 37 41  1  0  0  0  0
 41 42  1  0  0  0  0
 42 43  1  0  0  0  0
 41 44  2  0  0  0  0
 33 45  1  0  0  0  0
 45 46  2  0  0  0  0
 46 47  1  0  0  0  0
 47 48  2  0  0  0  0
 48 49  1  0  0  0  0
 49 50  2  0  0  0  0
 50 51  1  0  0  0  0
 51 52  1  0  0  0  0
 52 53  1  0  0  0  0
 53 54  1  0  0  0  0
 54 55  1  0  0  0  0
 53 56  2  0  0  0  0
 56 57  1  0  0  0  0
 56 58  1  0  0  0  0
 58 59  1  0  0  0  0
 50 60  1  0  0  0  0
 60 61  2  0  0  0  0
 61 62  1  0  0  0  0
 62 63  1  0  0  0  0
 63 64  1  0  0  0  0
 64 65  1  0  0  0  0
 65 66  1  0  0  0  0
 66 67  1  0  0  0  0
 65 68  2  0  0  0  0
 68 69  1  0  0  0  0
 69 70  1  0  0  0  0
 68 71  1  0  0  0  0
 62 72  2  0  0  0  0
 72 73  1  0  0  0  0
 61 74  1  0  0  0  0
 74 75  2  0  0  0  0
 75 76  1  0  0  0  0
 75 77  1  0  0  0  0
 77 78  1  0  0  0  0
 78 79  1  0  0  0  0
 79 80  2  0  0  0  0
 80 81  1  0  0  0  0
 81 82  1  0  0  0  0
 82 83  2  0  0  0  0
 83 84  1  0  0  0  0
 84 85  1  0  0  0  0
 85 86  1  0  0  0  0
 83 87  1  0  0  0  0
 87 88  1  0  0  0  0
 88 89  1  0  0  0  0
 87 90  2  0  0  0  0
 79 91  1  0  0  0  0
 91 92  2  0  0  0  0
 92 93  1  0  0  0  0
 93 94  1  0  0  0  0
 94 95  1  0  0  0  0
 95 96  2  0  0  0  0
 96 97  1  0  0  0  0
 97 98  1  0  0  0  0
 98 99  2  0  0  0  0
 99100  1  0  0  0  0
100101  1  0  0  0  0
101102  1  0  0  0  0
 99103  1  0  0  0  0
103104  1  0  0  0  0
104105  1  0  0  0  0
103106  2  0  0  0  0
 95107  1  0  0  0  0
107108  2  0  0  0  0
108109  1  0  0  0  0
109110  1  0  0  0  0
110111  1  0  0  0  0
111112  2  0  0  0  0
112113  1  0  0  0  0
113114  1  0  0  0  0
114115  2  0  0  0  0
115116  1  0  0  0  0
116117  1  0  0  0  0
117118  1  0  0  0  0
115119  1  0  0  0  0
119120  1  0  0  0  0
120121  1  0  0  0  0
119122  2  0  0  0  0
111123  1  0  0  0  0
123124  2  0  0  0  0
 27  1  1  0  0  0  0
 35 31  2  0  0  0  0
 73 47  1  0  0  0  0
 81 77  2  0  0  0  0
 97 93  2  0  0  0  0
113109  2  0  0  0  0
 26  3  1  0  0  0  0
 44 34  1  0  0  0  0
 72 49  1  0  0  0  0
 90 80  1  0  0  0  0
106 96  1  0  0  0  0
122112  1  0  0  0  0
 12  5  2  0  0  0  0
 30 14  1  0  0  0  0
 58 51  2  0  0  0  0
 76 60  1  0  0  0  0
 23 17  2  0  0  0  0
 69 63  2  0  0  0  0
  1125  1  0  0  0  0
  2126  1  0  0  0  0
  8127  1  0  0  0  0
  8128  1  0  0  0  0
  9129  1  0  0  0  0
  9130  1  0  0  0  0
  9131  1  0  0  0  0
 20132  1  0  0  0  0
 20133  1  0  0  0  0
 21134  1  0  0  0  0
 21135  1  0  0  0  0
 21136  1  0  0  0  0
 28137  1  0  0  0  0
 39138  1  0  0  0  0
 39139  1  0  0  0  0
 40140  1  0  0  0  0
 40141  1  0  0  0  0
 40142  1  0  0  0  0
 42143  1  0  0  0  0
 42144  1  0  0  0  0
 43145  1  0  0  0  0
 43146  1  0  0  0  0
 45147  1  0  0  0  0
 46148  1  0  0  0  0
 48149  1  0  0  0  0
 54150  1  0  0  0  0
 54151  1  0  0  0  0
 55152  1  0  0  0  0
 55153  1  0  0  0  0
 55154  1  0  0  0  0
 66155  1  0  0  0  0
 66156  1  0  0  0  0
 67157  1  0  0  0  0
 67158  1  0  0  0  0
 67159  1  0  0  0  0
 74160  1  0  0  0  0
 85161  1  0  0  0  0
 85162  1  0  0  0  0
 86163  1  0  0  0  0
 86164  1  0  0  0  0
 86165  1  0  0  0  0
 88166  1  0  0  0  0
 88167  1  0  0  0  0
 89168  1  0  0  0  0
 89169  1  0  0  0  0
 91170  1  0  0  0  0
 92171  1  0  0  0  0
101172  1  0  0  0  0
101173  1  0  0  0  0
102174  1  0  0  0  0
102175  1  0  0  0  0
102176  1  0  0  0  0
104177  1  0  0  0  0
104178  1  0  0  0  0
105179  1  0  0  0  0
105180  1  0  0  0  0
107181  1  0  0  0  0
108182  1  0  0  0  0
117183  1  0  0  0  0
117184  1  0  0  0  0
118185  1  0  0  0  0
118186  1  0  0  0  0
118187  1  0  0  0  0
120188  1  0  0  0  0
120189  1  0  0  0  0
121190  1  0  0  0  0
121191  1  0  0  0  0
123192  1  0  0  0  0
124193  1  0  0  0  0
124194  1  0  0  0  0
M  END
