131

C          2.95270        2.32970       -9.12510
S          3.85970        1.03050       -8.42380
C          3.00780        1.21830       -6.91570
C          3.20580        0.48180       -5.76750
C          2.42750        0.79210       -4.65410
C          2.45170        0.19740       -3.36630
C          1.57100        0.75630       -2.48950
S          0.64510        2.05470       -3.21760
C          1.47190        1.83800       -4.73610
C          1.27150        2.57010       -5.88510
C          2.05150        2.26170       -6.99660
C          2.04830        2.87330       -8.28470
C          1.36930        0.42220       -1.11810
S          2.27430       -0.90260       -0.40560
C          1.54130       -0.60770        1.14870
C          1.81480       -1.28380        2.31620
C          1.15450       -0.87990        3.47650
C          1.29210       -1.38710        4.79150
C          0.48950       -0.76110        5.70240
S         -0.48830        0.50180        4.97060
C          0.21140        0.18090        3.40730
C         -0.06580        0.85330        2.23900
C          0.61730        0.46770        1.08550
C          0.54660        1.02810       -0.21490
C          0.31910       -1.08120        7.07530
S         -0.97090       -0.37030        7.98550
C         -0.75770       -1.43230        9.33450
C          0.36520       -2.21950        9.13820
C          0.96430       -2.04150        7.84570
N          2.02270       -2.79260        7.46170
C          2.46480       -3.66150        8.32790
O          3.49870       -4.45310        8.02970
C          4.09020       -4.29480        6.74360
C          4.94300       -3.03740        6.64430
C          1.87490       -3.83440        9.63780
C          2.44320       -4.85800       10.57050
N          2.02330       -4.63100       11.93850
N          0.84770       -3.13480       10.01250
C         -1.80030       -1.58120       10.33670
C         -3.06420       -1.83550        9.97500
C         -3.37800       -2.01170        8.55810
S         -2.58210       -3.34090        7.71660
C         -2.92340       -2.60280        6.17460
C         -2.40350       -2.99650        4.96350
C         -2.64940       -2.18330        3.85750
C         -2.14330       -2.31250        2.54340
C         -2.52950       -1.29720        1.71270
S         -3.56130       -0.12730        2.51290
C         -3.45490       -1.02360        4.00650
C         -4.00760       -0.65740        5.21450
C         -3.72360       -1.44240        6.32890
C         -3.98770       -1.15830        7.70110
C         -2.19340       -1.09390        0.35670
S         -1.20430       -2.17650       -0.56970
C         -1.29020       -1.19970       -2.00820
C         -2.07190       -0.06430       -1.76060
C         -2.57050       -0.00930       -0.42790
N         -3.32190        1.02340        0.01050
C         -3.55170        1.97900       -0.84960
O         -4.25980        3.05510       -0.50830
C         -4.78810        3.09280        0.81600
C         -6.03130        2.22690        0.95850
C         -3.04380        1.93740       -2.19960
C         -3.31790        3.06740       -3.15570
N         -2.66500        2.93130       -4.44130
N         -2.33360        0.93450       -2.62990
C         -0.58650       -1.56650       -3.16990
C         -0.66580       -0.89390       -4.35150
C          0.10130       -1.20010       -5.48810
S          1.33260       -2.43290       -5.50010
C          1.78460       -2.12050       -7.14220
C          0.98910       -1.10650       -7.66740
C          0.04860       -0.57480       -6.73690
N         -0.77990        0.44030       -7.07570
C         -0.67020        0.88170       -8.30140
O         -1.42650        1.88920       -8.73220
C         -2.34940        2.44160       -7.79580
C         -3.05970        3.60840       -8.45560
C          0.25370        0.32270       -9.26010
C          0.28690        0.84680      -10.67090
N          1.29800        0.25040      -11.51650
N          1.06350       -0.64060       -8.93750
C          2.83760       -2.80280       -7.82200
C          3.60600       -3.75230       -7.28660
H          3.15770        2.60670      -10.14130
H          3.93840       -0.30890       -5.72610
H          3.10440       -0.61520       -3.09990
H          0.54260        3.36430       -5.92690
H          1.39330        3.68490       -8.54740
H          2.52830       -2.09200        2.34200
H          1.95130       -2.18940        5.06590
H         -0.78480        1.65670        2.20870
H         -0.08180        1.86470       -0.46830
H          3.29820       -4.27640        5.98740
H          4.70220       -5.19070        6.61490
H          5.43050       -3.00590        5.67410
H          4.31890       -2.15470        6.75590
H          5.70180       -3.03670        7.42300
H          2.14610       -5.84540       10.17190
H          3.53780       -4.81520       10.51790
H          1.08920       -4.23480       11.93650
H          2.01360       -5.49630       12.46460
H         -1.50960       -1.52880       11.37590
H         -3.85270       -1.93330       10.70680
H         -1.78160       -3.87330        4.87580
H         -1.50160       -3.11420        2.22220
H         -4.59980        0.23880        5.30850
H         -4.51840       -0.28030        8.02430
H         -4.02040        2.75920        1.52090
H         -5.02320        4.14610        0.98490
H         -5.77130        1.18200        0.81400
H         -6.77940        2.51660        0.22440
H         -6.44370        2.34890        1.95540
H         -4.40000        3.13950       -3.31370
H         -2.99850        4.00570       -2.69030
H         -2.93760        2.04320       -4.85300
H         -1.66140        2.87320       -4.29060
H          0.06170       -2.43090       -3.09310
H         -1.33820       -0.05420       -4.44650
H         -3.05930        1.66200       -7.49780
H         -1.80850        2.76470       -6.90120
H         -3.61030        3.27250       -9.33020
H         -2.33790        4.35820       -8.76810
H         -3.74880        4.05400       -7.74500
H         -0.69640        0.68180      -11.12510
H          0.44450        1.92990      -10.63700
H          1.13810       -0.75050      -11.57540
H          2.20850        0.36650      -11.08140
H          2.98250       -2.47350       -8.84230
H          4.39040       -4.22650       -7.84820
H          3.46480       -4.07870       -6.26910
