154

C          4.36950        5.23170        2.00570
S          2.82220        4.61420        2.38310
C          3.14350        3.09720        1.58920
C          4.41420        3.12110        1.00620
C          5.12090        4.33860        1.27370
C          6.43840        4.51890        0.78620
C          7.03150        3.55960        0.01680
C          8.45040        3.67780       -0.51390
C          8.42160        3.65880       -2.04870
C          9.27460        2.49220        0.00830
C          9.13870        4.96980       -0.06600
C          6.27990        2.39920       -0.31850
C          5.01970        2.18000        0.14830
C          2.17050        2.06940        1.62090
S          0.48520        2.48380        1.64290
C         -0.03670        0.82260        1.66340
C          1.09160       -0.02730        1.70170
C          2.33000        0.67880        1.70420
C          3.54120       -0.01870        1.88230
C          3.56090       -1.38550        1.98040
C          4.84190       -2.17620        2.18810
C          4.97920       -3.23730        1.08770
C          4.77530       -2.86190        3.56030
C          6.09080       -1.29060        2.15060
C          2.32860       -2.07660        1.92510
C          1.13160       -1.42750        1.80860
C         -1.39360        0.49080        1.56470
S         -1.87040       -1.10090        1.05350
C         -3.55420       -0.67990        0.90750
C         -3.75410        0.64230        1.34310
C         -2.54470        1.30290        1.70960
C         -2.60610        2.62530        2.17090
C         -3.80170        3.30480        2.24870
C         -3.79590        4.74820        2.72760
C         -3.22160        4.80630        4.15000
C         -2.91790        5.57710        1.77860
C         -5.19430        5.37120        2.75130
C         -4.98280        2.63240        1.87830
C         -4.96830        1.33220        1.44920
C         -4.38060       -1.63120        0.28820
S         -3.66690       -3.21090        0.05960
C         -4.78650       -3.68080       -1.18120
C         -5.79830       -2.71850       -1.25810
C         -5.57200       -1.55720       -0.44990
N         -6.41600       -0.50540       -0.51440
C         -7.42880       -0.60780       -1.33610
O         -8.29130        0.40510       -1.49600
C         -8.10520        1.56630       -0.69450
C         -8.71560        1.39510        0.69050
C         -7.67810       -1.78650       -2.12000
C         -8.87540       -1.84550       -3.01840
N         -9.20990       -3.21030       -3.37670
N         -6.86540       -2.80370       -2.07760
C         -4.63820       -4.87060       -1.92980
C         -3.46360       -5.52750       -2.15710
C         -2.15330       -5.01670       -1.95340
S         -1.75890       -3.35260       -2.23110
C         -0.11440       -3.51450       -1.68770
C          0.14070       -4.86950       -1.38020
C         -1.00020       -5.71060       -1.55890
C         -0.92280       -7.08430       -1.27630
C          0.24520       -7.65540       -0.83450
C          0.29530       -9.15080       -0.56100
C         -0.06190       -9.90610       -1.84920
C          1.67600       -9.62580       -0.10030
C         -0.72000       -9.49040        0.53940
C          1.36010       -6.81280       -0.64060
C          1.31670       -5.46980       -0.89780
C          0.73110       -2.38680       -1.60380
S          2.43940       -2.58960       -1.31910
C          2.74780       -0.91830       -1.34290
C          1.60100       -0.18790       -1.55680
C          0.43870       -1.01070       -1.72010
C         -0.79440       -0.38130       -1.98210
C         -0.89220        0.98250       -2.10000
C         -2.18110        1.67890       -2.50750
C         -1.97940        2.22520       -3.93030
C         -3.38820        0.73710       -2.52010
C         -2.49760        2.83880       -1.55400
C          0.27140        1.77220       -1.91470
C          1.48280        1.21710       -1.64490
H          4.64550        6.21280        2.33640
H          6.93780        5.43850        1.04320
H          9.42960        3.77120       -2.44220
H          7.81140        4.47830       -2.42310
H          8.01160        2.72760       -2.42980
H         10.30030        2.56410       -0.34730
H          8.86530        1.54310       -0.32650
H          9.28580        2.49310        1.09640
H          9.19530        5.02680        1.01860
H         10.15350        4.99460       -0.45780
H          8.61240        5.84400       -0.44210
H          6.71980        1.66450       -0.97560
H          4.46740        1.30210       -0.14800
H          4.44230        0.56180        1.97570
H          5.00640       -2.76710        0.10720
H          5.90110       -3.79830        1.22580
H          4.15100       -3.93950        1.10320
H          5.68780       -3.42560        3.74260
H          3.93300       -3.54600        3.61790
H          4.66520       -2.11860        4.34730
H          6.17100       -0.76440        1.20190
H          6.97770       -1.90990        2.26900
H          6.08250       -0.56200        2.95780
H          2.31870       -3.15230        2.00800
H          0.21900       -2.00040        1.82020
H         -1.69340        3.10670        2.47890
H         -3.81830        4.19320        4.82240
H         -2.19700        4.44670        4.17830
H         -3.23250        5.83070        4.51590
H         -3.30300        5.51740        0.76270
H         -2.91480        6.62030        2.08710
H         -1.89210        5.21940        1.77450
H         -5.85100        4.83650        3.43380
H         -5.12440        6.40190        3.09330
H         -5.63770        5.37760        1.75810
H         -5.93230        3.13740        1.94370
H         -5.87440        0.81790        1.18120
H         -7.03610        1.78810       -0.62070
H         -8.61280        2.36460       -1.24200
H         -8.58480        2.30770        1.26480
H         -8.23190        0.57490        1.21490
H         -9.77760        1.17690        0.60740
H         -8.65110       -1.20180       -3.88820
H         -9.72830       -1.38920       -2.50170
H         -9.65540       -3.24900       -4.28550
H         -8.35650       -3.75900       -3.40550
H         -5.55730       -5.28760       -2.31990
H         -3.51840       -6.53350       -2.55660
H         -1.81180       -7.67850       -1.42010
H          0.63570       -9.64650       -2.64300
H         -0.00980      -10.97980       -1.68110
H         -1.06600       -9.66360       -2.18550
H          1.65170      -10.70150        0.06270
H          1.96200       -9.15270        0.83640
H          2.43340       -9.41780       -0.85270
H         -1.73120       -9.23060        0.23870
H         -0.69210      -10.55550        0.75980
H         -0.48510       -8.94270        1.44980
H          2.28540       -7.22550       -0.27440
H          2.19900       -4.87750       -0.72330
H          3.74900       -0.56240       -1.20870
H         -1.66840       -0.99340       -2.10580
H         -2.88040        2.73350       -4.26750
H         -1.76320        1.41090       -4.61910
H         -1.15300        2.93050       -3.96650
H         -3.26110       -0.06600       -3.24260
H         -3.55780        0.30800       -1.53650
H         -4.28090        1.29480       -2.79710
H         -3.44680        3.29400       -1.82980
H         -1.73510        3.61180       -1.58650
H         -2.57680        2.48040       -0.53170
H          0.19960        2.84570       -1.99440
H          2.36190        1.82960       -1.50790
