
  xtb     03012207353D
 energy: -351.015044555424 gnorm: 0.000491492915 xtb: 6.4.1 (unknown)
194211  0     0  0            999 V2000
    0.7456    0.7203   -1.8008 C   0  0  0  0  0  0  0  0  0  0  0  0
    1.7550   -0.2554   -2.7836 S   0  0  0  0  0  0  0  0  0  0  0  0
    0.4158   -0.9705   -3.6276 C   0  0  0  0  0  0  0  0  0  0  0  0
   -0.7769   -0.4667   -3.1121 C   0  0  0  0  0  0  0  0  0  0  0  0
   -0.5802    0.5161   -2.0846 C   0  0  0  0  0  0  0  0  0  0  0  0
   -1.6367    1.1646   -1.5182 N   0  0  0  0  0  0  0  0  0  0  0  0
   -2.8126    0.8112   -1.9541 C   0  0  0  0  0  0  0  0  0  0  0  0
   -3.9161    1.3999   -1.4997 O   0  0  0  0  0  0  0  0  0  0  0  0
   -3.7477    2.4571   -0.5621 C   0  0  0  0  0  0  0  0  0  0  0  0
   -5.1292    2.9580   -0.1834 C   0  0  0  0  0  0  0  0  0  0  0  0
   -3.0178   -0.2161   -2.9541 C   0  0  0  0  0  0  0  0  0  0  0  0
   -4.4214   -0.5801   -3.3539 C   0  0  0  0  0  0  0  0  0  0  0  0
   -4.5277   -1.6618   -4.3082 N   0  0  0  0  0  0  0  0  0  0  0  0
   -2.0170   -0.8219   -3.5200 N   0  0  0  0  0  0  0  0  0  0  0  0
    0.5599   -1.9023   -4.6796 C   0  0  0  0  0  0  0  0  0  0  0  0
    1.7392   -2.2343   -5.2610 C   0  0  0  0  0  0  0  0  0  0  0  0
    1.8993   -3.2380   -6.2408 C   0  0  0  0  0  0  0  0  0  0  0  0
    0.5754   -4.1750   -6.8597 S   0  0  0  0  0  0  0  0  0  0  0  0
    1.6112   -5.3383   -7.6272 C   0  0  0  0  0  0  0  0  0  0  0  0
    2.9341   -4.9375   -7.5160 C   0  0  0  0  0  0  0  0  0  0  0  0
    3.1002   -3.7598   -6.7184 C   0  0  0  0  0  0  0  0  0  0  0  0
    4.3296   -3.2857   -6.4189 N   0  0  0  0  0  0  0  0  0  0  0  0
    5.3413   -3.9580   -6.8942 C   0  0  0  0  0  0  0  0  0  0  0  0
    6.5944   -3.5812   -6.6197 O   0  0  0  0  0  0  0  0  0  0  0  0
    6.7545   -2.3928   -5.8488 C   0  0  0  0  0  0  0  0  0  0  0  0
    6.5429   -1.1375   -6.6835 C   0  0  0  0  0  0  0  0  0  0  0  0
    5.1826   -5.1357   -7.7180 C   0  0  0  0  0  0  0  0  0  0  0  0
    6.3985   -5.8441   -8.2290 C   0  0  0  0  0  0  0  0  0  0  0  0
    6.0846   -6.7212   -9.3386 N   0  0  0  0  0  0  0  0  0  0  0  0
    4.0064   -5.6045   -8.0079 N   0  0  0  0  0  0  0  0  0  0  0  0
    1.1041   -6.6097   -8.0953 C   0  0  0  0  0  0  0  0  0  0  0  0
    0.2714   -7.3571   -7.3553 C   0  0  0  0  0  0  0  0  0  0  0  0
   -0.0919   -6.9274   -6.0117 C   0  0  0  0  0  0  0  0  0  0  0  0
   -1.2920   -6.5197   -5.5321 C   0  0  0  0  0  0  0  0  0  0  0  0
   -1.1997   -5.8079   -4.3025 C   0  0  0  0  0  0  0  0  0  0  0  0
   -2.2152   -5.1461   -3.5938 C   0  0  0  0  0  0  0  0  0  0  0  0
   -3.6066   -5.1827   -4.0132 C   0  0  0  0  0  0  0  0  0  0  0  0
   -4.0774   -4.7557   -5.6332 S   0  0  0  0  0  0  0  0  0  0  0  0
   -5.7631   -4.8903   -5.2648 C   0  0  0  0  0  0  0  0  0  0  0  0
   -6.7973   -4.5555   -6.2802 C   0  0  0  0  0  0  0  0  0  0  0  0
   -6.6244   -3.1193   -6.7754 C   0  0  0  0  0  0  0  0  0  0  0  0
   -5.9338   -5.2668   -3.9671 C   0  0  0  0  0  0  0  0  0  0  0  0
   -7.4625   -5.5182   -3.2303 Cl  0  0  0  0  0  0  0  0  0  0  0  0
   -4.7158   -5.4330   -3.2543 C   0  0  0  0  0  0  0  0  0  0  0  0
   -4.6706   -5.9667   -1.6268 Cl  0  0  0  0  0  0  0  0  0  0  0  0
   -1.8256   -4.3709   -2.5076 C   0  0  0  0  0  0  0  0  0  0  0  0
   -0.4765   -4.2333   -2.0939 C   0  0  0  0  0  0  0  0  0  0  0  0
    0.5242   -4.9730   -2.7446 C   0  0  0  0  0  0  0  0  0  0  0  0
    1.9138   -4.9379   -2.3146 C   0  0  0  0  0  0  0  0  0  0  0  0
    3.1962   -4.4794   -3.3942 S   0  0  0  0  0  0  0  0  0  0  0  0
    4.4114   -4.8085   -2.2099 C   0  0  0  0  0  0  0  0  0  0  0  0
    5.8500   -4.5404   -2.4866 C   0  0  0  0  0  0  0  0  0  0  0  0
    6.2432   -3.1475   -1.9875 C   0  0  0  0  0  0  0  0  0  0  0  0
    3.8430   -5.2435   -1.0500 C   0  0  0  0  0  0  0  0  0  0  0  0
    2.4251   -5.3054   -1.1019 C   0  0  0  0  0  0  0  0  0  0  0  0
    1.4642   -5.8394    0.2133 Cl  0  0  0  0  0  0  0  0  0  0  0  0
    4.7487   -5.7307    0.3268 Cl  0  0  0  0  0  0  0  0  0  0  0  0
    0.1349   -5.7285   -3.8410 C   0  0  0  0  0  0  0  0  0  0  0  0
    1.2139   -6.6225   -4.8706 S   0  0  0  0  0  0  0  0  0  0  0  0
   -0.3219   -3.2546   -1.0860 C   0  0  0  0  0  0  0  0  0  0  0  0
   -1.5016   -2.6664   -0.7173 C   0  0  0  0  0  0  0  0  0  0  0  0
   -2.8709   -3.3382   -1.5769 S   0  0  0  0  0  0  0  0  0  0  0  0
   -1.6884   -1.6329    0.2315 C   0  0  0  0  0  0  0  0  0  0  0  0
   -3.2671   -1.1346    0.7621 S   0  0  0  0  0  0  0  0  0  0  0  0
   -2.6455    0.0117    1.9067 C   0  0  0  0  0  0  0  0  0  0  0  0
   -1.2578    0.0745    1.7826 C   0  0  0  0  0  0  0  0  0  0  0  0
   -0.7100   -0.8903    0.8882 C   0  0  0  0  0  0  0  0  0  0  0  0
    0.6282   -1.0399    0.7611 N   0  0  0  0  0  0  0  0  0  0  0  0
    1.3748   -0.2239    1.4571 C   0  0  0  0  0  0  0  0  0  0  0  0
    2.7018   -0.3051    1.4277 O   0  0  0  0  0  0  0  0  0  0  0  0
    3.2756   -1.4383    0.7795 C   0  0  0  0  0  0  0  0  0  0  0  0
    3.0712   -2.7028    1.5987 C   0  0  0  0  0  0  0  0  0  0  0  0
    0.8207    0.8408    2.2566 C   0  0  0  0  0  0  0  0  0  0  0  0
    1.7037    1.8072    2.9963 C   0  0  0  0  0  0  0  0  0  0  0  0
    1.0112    3.0089    3.4244 N   0  0  0  0  0  0  0  0  0  0  0  0
   -0.4638    0.9701    2.4041 N   0  0  0  0  0  0  0  0  0  0  0  0
   -3.4900    0.7094    2.8114 C   0  0  0  0  0  0  0  0  0  0  0  0
   -3.1260    1.1839    4.0305 C   0  0  0  0  0  0  0  0  0  0  0  0
   -1.9257    0.8923    4.7363 C   0  0  0  0  0  0  0  0  0  0  0  0
   -1.2541    2.0521    5.8474 S   0  0  0  0  0  0  0  0  0  0  0  0
    0.1233    1.0814    6.2370 C   0  0  0  0  0  0  0  0  0  0  0  0
    0.0298   -0.1347    5.5495 C   0  0  0  0  0  0  0  0  0  0  0  0
   -1.1297   -0.2535    4.7293 C   0  0  0  0  0  0  0  0  0  0  0  0
   -1.4087   -1.4143    4.0907 N   0  0  0  0  0  0  0  0  0  0  0  0
   -0.5204   -2.3659    4.1910 C   0  0  0  0  0  0  0  0  0  0  0  0
   -0.7260   -3.5605    3.6391 O   0  0  0  0  0  0  0  0  0  0  0  0
   -1.9969   -3.8103    3.0409 C   0  0  0  0  0  0  0  0  0  0  0  0
   -1.8416   -4.9319    2.0305 C   0  0  0  0  0  0  0  0  0  0  0  0
    0.7244   -2.1950    4.9045 C   0  0  0  0  0  0  0  0  0  0  0  0
    1.7433   -3.2941    4.9179 C   0  0  0  0  0  0  0  0  0  0  0  0
    3.0913   -2.7542    4.9718 N   0  0  0  0  0  0  0  0  0  0  0  0
    0.9601   -1.1137    5.5878 N   0  0  0  0  0  0  0  0  0  0  0  0
    1.1363    1.3560    7.1917 C   0  0  0  0  0  0  0  0  0  0  0  0
    1.5203    2.4953    7.8150 C   0  0  0  0  0  0  0  0  0  0  0  0
    1.1799    3.8558    7.5430 C   0  0  0  0  0  0  0  0  0  0  0  0
    0.7560    4.4497    6.3907 C   0  0  0  0  0  0  0  0  0  0  0  0
    0.6720    5.8607    6.4750 C   0  0  0  0  0  0  0  0  0  0  0  0
    0.2898    6.7585    5.4647 C   0  0  0  0  0  0  0  0  0  0  0  0
   -0.2681    6.2454    4.2226 C   0  0  0  0  0  0  0  0  0  0  0  0
    0.4277    6.5124    2.6567 S   0  0  0  0  0  0  0  0  0  0  0  0
   -0.7900    5.5609    1.8712 C   0  0  0  0  0  0  0  0  0  0  0  0
   -0.7806    5.3132    0.4016 C   0  0  0  0  0  0  0  0  0  0  0  0
   -0.1124    3.9790    0.0568 C   0  0  0  0  0  0  0  0  0  0  0  0
   -1.6762    5.0774    2.7878 C   0  0  0  0  0  0  0  0  0  0  0  0
   -3.0119    4.0793    2.3969 Cl  0  0  0  0  0  0  0  0  0  0  0  0
   -1.3875    5.4695    4.1194 C   0  0  0  0  0  0  0  0  0  0  0  0
   -2.3925    5.0737    5.4501 Cl  0  0  0  0  0  0  0  0  0  0  0  0
    0.3876    8.1120    5.7464 C   0  0  0  0  0  0  0  0  0  0  0  0
    0.8056    8.6050    7.0056 C   0  0  0  0  0  0  0  0  0  0  0  0
    1.1575    7.7088    8.0276 C   0  0  0  0  0  0  0  0  0  0  0  0
    1.6065    8.1838    9.3272 C   0  0  0  0  0  0  0  0  0  0  0  0
    0.8364    7.6681   10.7966 S   0  0  0  0  0  0  0  0  0  0  0  0
    1.9001    8.6173   11.7779 C   0  0  0  0  0  0  0  0  0  0  0  0
    1.8029    8.5923   13.2633 C   0  0  0  0  0  0  0  0  0  0  0  0
    2.4915    7.3501   13.8334 C   0  0  0  0  0  0  0  0  0  0  0  0
    2.8021    9.2774   10.9982 C   0  0  0  0  0  0  0  0  0  0  0  0
    2.6346    9.0391    9.6075 C   0  0  0  0  0  0  0  0  0  0  0  0
    3.6777    9.7097    8.4199 Cl  0  0  0  0  0  0  0  0  0  0  0  0
    4.0287   10.3086   11.6134 Cl  0  0  0  0  0  0  0  0  0  0  0  0
    1.0768    6.3529    7.7392 C   0  0  0  0  0  0  0  0  0  0  0  0
    1.5086    5.0473    8.8020 S   0  0  0  0  0  0  0  0  0  0  0  0
    0.7498   10.0290    7.0525 C   0  0  0  0  0  0  0  0  0  0  0  0
    0.3324   10.5760    5.8929 C   0  0  0  0  0  0  0  0  0  0  0  0
   -0.0362    9.4110    4.6666 S   0  0  0  0  0  0  0  0  0  0  0  0
    1.1753    1.3882   -1.0827 H   0  0  0  0  0  0  0  0  0  0  0  0
   -3.2002    2.0837    0.3099 H   0  0  0  0  0  0  0  0  0  0  0  0
   -3.1451    3.2485   -1.0226 H   0  0  0  0  0  0  0  0  0  0  0  0
   -5.6460    3.3305   -1.0638 H   0  0  0  0  0  0  0  0  0  0  0  0
   -5.7139    2.1468    0.2420 H   0  0  0  0  0  0  0  0  0  0  0  0
   -5.0454    3.7578    0.5454 H   0  0  0  0  0  0  0  0  0  0  0  0
   -4.9796   -0.8487   -2.4507 H   0  0  0  0  0  0  0  0  0  0  0  0
   -4.9008    0.3119   -3.7745 H   0  0  0  0  0  0  0  0  0  0  0  0
   -3.9469   -1.4535   -5.1155 H   0  0  0  0  0  0  0  0  0  0  0  0
   -4.1432   -2.5028   -3.8889 H   0  0  0  0  0  0  0  0  0  0  0  0
   -0.3626   -2.3543   -5.0220 H   0  0  0  0  0  0  0  0  0  0  0  0
    2.6567   -1.7617   -4.9356 H   0  0  0  0  0  0  0  0  0  0  0  0
    7.7797   -2.4450   -5.4750 H   0  0  0  0  0  0  0  0  0  0  0  0
    6.0469   -2.4110   -5.0145 H   0  0  0  0  0  0  0  0  0  0  0  0
    6.7536   -0.2599   -6.0793 H   0  0  0  0  0  0  0  0  0  0  0  0
    7.2048   -1.1427   -7.5461 H   0  0  0  0  0  0  0  0  0  0  0  0
    5.5128   -1.0919   -7.0263 H   0  0  0  0  0  0  0  0  0  0  0  0
    6.8453   -6.3656   -7.3627 H   0  0  0  0  0  0  0  0  0  0  0  0
    7.1313   -5.0968   -8.5567 H   0  0  0  0  0  0  0  0  0  0  0  0
    5.1464   -7.0873   -9.2152 H   0  0  0  0  0  0  0  0  0  0  0  0
    6.7367   -7.4945   -9.3878 H   0  0  0  0  0  0  0  0  0  0  0  0
    1.4646   -6.9583   -9.0527 H   0  0  0  0  0  0  0  0  0  0  0  0
   -0.1302   -8.2870   -7.7305 H   0  0  0  0  0  0  0  0  0  0  0  0
   -2.2075   -6.6340   -6.0826 H   0  0  0  0  0  0  0  0  0  0  0  0
   -6.7249   -5.2448   -7.1258 H   0  0  0  0  0  0  0  0  0  0  0  0
   -7.7791   -4.6797   -5.8207 H   0  0  0  0  0  0  0  0  0  0  0  0
   -5.6889   -3.0214   -7.3207 H   0  0  0  0  0  0  0  0  0  0  0  0
   -7.4443   -2.8493   -7.4354 H   0  0  0  0  0  0  0  0  0  0  0  0
   -6.5999   -2.4329   -5.9328 H   0  0  0  0  0  0  0  0  0  0  0  0
    6.4580   -5.2931   -1.9804 H   0  0  0  0  0  0  0  0  0  0  0  0
    6.0284   -4.6123   -3.5606 H   0  0  0  0  0  0  0  0  0  0  0  0
    5.6227   -2.3884   -2.4578 H   0  0  0  0  0  0  0  0  0  0  0  0
    7.2849   -2.9455   -2.2220 H   0  0  0  0  0  0  0  0  0  0  0  0
    6.1083   -3.0839   -0.9109 H   0  0  0  0  0  0  0  0  0  0  0  0
    0.6201   -2.9668   -0.6585 H   0  0  0  0  0  0  0  0  0  0  0  0
    4.3362   -1.1908    0.6983 H   0  0  0  0  0  0  0  0  0  0  0  0
    2.8443   -1.5418   -0.2226 H   0  0  0  0  0  0  0  0  0  0  0  0
    2.0242   -2.9956    1.5813 H   0  0  0  0  0  0  0  0  0  0  0  0
    3.3693   -2.5311    2.6320 H   0  0  0  0  0  0  0  0  0  0  0  0
    3.6680   -3.5071    1.1840 H   0  0  0  0  0  0  0  0  0  0  0  0
    2.0704    1.2844    3.8920 H   0  0  0  0  0  0  0  0  0  0  0  0
    2.5770    2.0605    2.3921 H   0  0  0  0  0  0  0  0  0  0  0  0
    0.0498    2.7461    3.6325 H   0  0  0  0  0  0  0  0  0  0  0  0
    0.9641    3.6709    2.6573 H   0  0  0  0  0  0  0  0  0  0  0  0
   -4.5078    0.8743    2.4821 H   0  0  0  0  0  0  0  0  0  0  0  0
   -3.8119    1.8503    4.5385 H   0  0  0  0  0  0  0  0  0  0  0  0
   -2.3587   -2.8934    2.5707 H   0  0  0  0  0  0  0  0  0  0  0  0
   -2.7022   -4.0877    3.8336 H   0  0  0  0  0  0  0  0  0  0  0  0
   -1.1104   -4.6555    1.2750 H   0  0  0  0  0  0  0  0  0  0  0  0
   -2.7954   -5.1214    1.5462 H   0  0  0  0  0  0  0  0  0  0  0  0
   -1.5046   -5.8403    2.5227 H   0  0  0  0  0  0  0  0  0  0  0  0
    1.4971   -3.9441    5.7781 H   0  0  0  0  0  0  0  0  0  0  0  0
    1.6356   -3.9000    4.0135 H   0  0  0  0  0  0  0  0  0  0  0  0
    3.7440   -3.4618    5.2900 H   0  0  0  0  0  0  0  0  0  0  0  0
    3.1110   -1.9785    5.6263 H   0  0  0  0  0  0  0  0  0  0  0  0
    1.6648    0.4512    7.4717 H   0  0  0  0  0  0  0  0  0  0  0  0
    2.2326    2.3807    8.6231 H   0  0  0  0  0  0  0  0  0  0  0  0
    0.6105    3.9150    5.4704 H   0  0  0  0  0  0  0  0  0  0  0  0
   -0.2531    6.1265   -0.0989 H   0  0  0  0  0  0  0  0  0  0  0  0
   -1.8143    5.2969    0.0484 H   0  0  0  0  0  0  0  0  0  0  0  0
   -0.1945    3.7835   -1.0090 H   0  0  0  0  0  0  0  0  0  0  0  0
   -0.5951    3.1603    0.5853 H   0  0  0  0  0  0  0  0  0  0  0  0
    0.9428    4.0040    0.3232 H   0  0  0  0  0  0  0  0  0  0  0  0
    0.7520    8.5912   13.5583 H   0  0  0  0  0  0  0  0  0  0  0  0
    2.2776    9.4913   13.6605 H   0  0  0  0  0  0  0  0  0  0  0  0
    2.0264    6.4491   13.4406 H   0  0  0  0  0  0  0  0  0  0  0  0
    3.5439    7.3446   13.5614 H   0  0  0  0  0  0  0  0  0  0  0  0
    2.4111    7.3425   14.9170 H   0  0  0  0  0  0  0  0  0  0  0  0
    1.0028   10.6039    7.9240 H   0  0  0  0  0  0  0  0  0  0  0  0
    0.2060   11.6160    5.6636 H   0  0  0  0  0  0  0  0  0  0  0  0
  1  2  1  0  0  0  0
  2  3  1  0  0  0  0
  3  4  2  0  0  0  0
  4  5  1  0  0  0  0
  5  6  1  0  0  0  0
  6  7  2  0  0  0  0
  7  8  1  0  0  0  0
  8  9  1  0  0  0  0
  9 10  1  0  0  0  0
  7 11  1  0  0  0  0
 11 12  1  0  0  0  0
 12 13  1  0  0  0  0
 11 14  2  0  0  0  0
  3 15  1  0  0  0  0
 15 16  2  0  0  0  0
 16 17  1  0  0  0  0
 17 18  1  0  0  0  0
 18 19  1  0  0  0  0
 19 20  2  0  0  0  0
 20 21  1  0  0  0  0
 21 22  1  0  0  0  0
 22 23  2  0  0  0  0
 23 24  1  0  0  0  0
 24 25  1  0  0  0  0
 25 26  1  0  0  0  0
 23 27  1  0  0  0  0
 27 28  1  0  0  0  0
 28 29  1  0  0  0  0
 27 30  2  0  0  0  0
 19 31  1  0  0  0  0
 31 32  2  0  0  0  0
 32 33  1  0  0  0  0
 33 34  2  0  0  0  0
 34 35  1  0  0  0  0
 35 36  2  0  0  0  0
 36 37  1  0  0  0  0
 37 38  1  0  0  0  0
 38 39  1  0  0  0  0
 39 40  1  0  0  0  0
 40 41  1  0  0  0  0
 39 42  2  0  0  0  0
 42 43  1  0  0  0  0
 42 44  1  0  0  0  0
 44 45  1  0  0  0  0
 36 46  1  0  0  0  0
 46 47  2  0  0  0  0
 47 48  1  0  0  0  0
 48 49  1  0  0  0  0
 49 50  1  0  0  0  0
 50 51  1  0  0  0  0
 51 52  1  0  0  0  0
 52 53  1  0  0  0  0
 51 54  2  0  0  0  0
 54 55  1  0  0  0  0
 55 56  1  0  0  0  0
 54 57  1  0  0  0  0
 48 58  2  0  0  0  0
 58 59  1  0  0  0  0
 47 60  1  0  0  0  0
 60 61  2  0  0  0  0
 61 62  1  0  0  0  0
 61 63  1  0  0  0  0
 63 64  1  0  0  0  0
 64 65  1  0  0  0  0
 65 66  2  0  0  0  0
 66 67  1  0  0  0  0
 67 68  1  0  0  0  0
 68 69  2  0  0  0  0
 69 70  1  0  0  0  0
 70 71  1  0  0  0  0
 71 72  1  0  0  0  0
 69 73  1  0  0  0  0
 73 74  1  0  0  0  0
 74 75  1  0  0  0  0
 73 76  2  0  0  0  0
 65 77  1  0  0  0  0
 77 78  2  0  0  0  0
 78 79  1  0  0  0  0
 79 80  1  0  0  0  0
 80 81  1  0  0  0  0
 81 82  2  0  0  0  0
 82 83  1  0  0  0  0
 83 84  1  0  0  0  0
 84 85  2  0  0  0  0
 85 86  1  0  0  0  0
 86 87  1  0  0  0  0
 87 88  1  0  0  0  0
 85 89  1  0  0  0  0
 89 90  1  0  0  0  0
 90 91  1  0  0  0  0
 89 92  2  0  0  0  0
 81 93  1  0  0  0  0
 93 94  2  0  0  0  0
 94 95  1  0  0  0  0
 95 96  2  0  0  0  0
 96 97  1  0  0  0  0
 97 98  2  0  0  0  0
 98 99  1  0  0  0  0
 99100  1  0  0  0  0
100101  1  0  0  0  0
101102  1  0  0  0  0
102103  1  0  0  0  0
101104  2  0  0  0  0
104105  1  0  0  0  0
104106  1  0  0  0  0
106107  1  0  0  0  0
 98108  1  0  0  0  0
108109  2  0  0  0  0
109110  1  0  0  0  0
110111  1  0  0  0  0
111112  1  0  0  0  0
112113  1  0  0  0  0
113114  1  0  0  0  0
114115  1  0  0  0  0
113116  2  0  0  0  0
116117  1  0  0  0  0
117118  1  0  0  0  0
116119  1  0  0  0  0
110120  2  0  0  0  0
120121  1  0  0  0  0
109122  1  0  0  0  0
122123  2  0  0  0  0
123124  1  0  0  0  0
  5  1  2  0  0  0  0
 21 17  2  0  0  0  0
 59 33  1  0  0  0  0
 67 63  2  0  0  0  0
 83 79  2  0  0  0  0
121 95  1  0  0  0  0
 14  4  1  0  0  0  0
 30 20  1  0  0  0  0
 58 35  1  0  0  0  0
 76 66  1  0  0  0  0
 92 82  1  0  0  0  0
120 97  1  0  0  0  0
 44 37  2  0  0  0  0
 62 46  1  0  0  0  0
106 99  2  0  0  0  0
124108  1  0  0  0  0
 55 49  2  0  0  0  0
117111  2  0  0  0  0
  1125  1  0  0  0  0
  9126  1  0  0  0  0
  9127  1  0  0  0  0
 10128  1  0  0  0  0
 10129  1  0  0  0  0
 10130  1  0  0  0  0
 12131  1  0  0  0  0
 12132  1  0  0  0  0
 13133  1  0  0  0  0
 13134  1  0  0  0  0
 15135  1  0  0  0  0
 16136  1  0  0  0  0
 25137  1  0  0  0  0
 25138  1  0  0  0  0
 26139  1  0  0  0  0
 26140  1  0  0  0  0
 26141  1  0  0  0  0
 28142  1  0  0  0  0
 28143  1  0  0  0  0
 29144  1  0  0  0  0
 29145  1  0  0  0  0
 31146  1  0  0  0  0
 32147  1  0  0  0  0
 34148  1  0  0  0  0
 40149  1  0  0  0  0
 40150  1  0  0  0  0
 41151  1  0  0  0  0
 41152  1  0  0  0  0
 41153  1  0  0  0  0
 52154  1  0  0  0  0
 52155  1  0  0  0  0
 53156  1  0  0  0  0
 53157  1  0  0  0  0
 53158  1  0  0  0  0
 60159  1  0  0  0  0
 71160  1  0  0  0  0
 71161  1  0  0  0  0
 72162  1  0  0  0  0
 72163  1  0  0  0  0
 72164  1  0  0  0  0
 74165  1  0  0  0  0
 74166  1  0  0  0  0
 75167  1  0  0  0  0
 75168  1  0  0  0  0
 77169  1  0  0  0  0
 78170  1  0  0  0  0
 87171  1  0  0  0  0
 87172  1  0  0  0  0
 88173  1  0  0  0  0
 88174  1  0  0  0  0
 88175  1  0  0  0  0
 90176  1  0  0  0  0
 90177  1  0  0  0  0
 91178  1  0  0  0  0
 91179  1  0  0  0  0
 93180  1  0  0  0  0
 94181  1  0  0  0  0
 96182  1  0  0  0  0
102183  1  0  0  0  0
102184  1  0  0  0  0
103185  1  0  0  0  0
103186  1  0  0  0  0
103187  1  0  0  0  0
114188  1  0  0  0  0
114189  1  0  0  0  0
115190  1  0  0  0  0
115191  1  0  0  0  0
115192  1  0  0  0  0
122193  1  0  0  0  0
123194  1  0  0  0  0
M  END
