
  xtb     02282221313D
 energy: -274.092109941636 gnorm: 0.000425806426 xtb: 6.4.1 (unknown)
164178  0     0  0            999 V2000
   -1.4303    6.6674    0.8277 C   0  0  0  0  0  0  0  0  0  0  0  0
   -0.3675    6.3395    1.6585 C   0  0  0  0  0  0  0  0  0  0  0  0
    0.6026    7.1566    2.0957 N   0  0  0  0  0  0  0  0  0  0  0  0
    1.5726    6.3243    3.0616 S   0  0  0  0  0  0  0  0  0  0  0  0
    0.8458    4.9007    2.9948 N   0  0  0  0  0  0  0  0  0  0  0  0
   -0.2123    4.9961    2.1811 C   0  0  0  0  0  0  0  0  0  0  0  0
   -1.1157    3.9756    1.8527 C   0  0  0  0  0  0  0  0  0  0  0  0
   -2.1673    4.3165    0.9853 C   0  0  0  0  0  0  0  0  0  0  0  0
   -2.3297    5.6593    0.5020 C   0  0  0  0  0  0  0  0  0  0  0  0
   -3.3893    5.9561   -0.2895 N   0  0  0  0  0  0  0  0  0  0  0  0
   -4.2031    5.0125   -0.6627 C   0  0  0  0  0  0  0  0  0  0  0  0
   -5.3980    5.4487   -1.4585 C   0  0  0  0  0  0  0  0  0  0  0  0
   -6.6440    5.4855   -0.5705 C   0  0  0  0  0  0  0  0  0  0  0  0
   -3.9543    3.6465   -0.2962 C   0  0  0  0  0  0  0  0  0  0  0  0
   -4.7393    2.4884   -0.8475 C   0  0  0  0  0  0  0  0  0  0  0  0
   -5.1573    1.5230    0.2598 C   0  0  0  0  0  0  0  0  0  0  0  0
   -2.9816    3.3459    0.5155 N   0  0  0  0  0  0  0  0  0  0  0  0
   -0.9254    2.6218    2.3399 C   0  0  0  0  0  0  0  0  0  0  0  0
   -1.9548    1.8857    2.9413 C   0  0  0  0  0  0  0  0  0  0  0  0
   -3.2055    2.3105    3.1417 N   0  0  0  0  0  0  0  0  0  0  0  0
   -4.0496    1.1300    3.8260 S   0  0  0  0  0  0  0  0  0  0  0  0
   -2.8845    0.0276    3.9330 N   0  0  0  0  0  0  0  0  0  0  0  0
   -1.7558    0.5381    3.4481 C   0  0  0  0  0  0  0  0  0  0  0  0
   -0.4967   -0.1000    3.3577 C   0  0  0  0  0  0  0  0  0  0  0  0
    0.4911    0.6219    2.6398 C   0  0  0  0  0  0  0  0  0  0  0  0
    0.3060    1.9629    2.1852 C   0  0  0  0  0  0  0  0  0  0  0  0
    1.3184    2.5815    1.5410 N   0  0  0  0  0  0  0  0  0  0  0  0
    2.4411    1.9531    1.3266 C   0  0  0  0  0  0  0  0  0  0  0  0
    3.5370    2.7599    0.6978 C   0  0  0  0  0  0  0  0  0  0  0  0
    4.4083    3.3747    1.7962 C   0  0  0  0  0  0  0  0  0  0  0  0
    2.6031    0.5900    1.7171 C   0  0  0  0  0  0  0  0  0  0  0  0
    3.7809   -0.2558    1.3417 C   0  0  0  0  0  0  0  0  0  0  0  0
    3.5569   -0.8435   -0.0546 C   0  0  0  0  0  0  0  0  0  0  0  0
    1.6381   -0.0126    2.3609 N   0  0  0  0  0  0  0  0  0  0  0  0
   -0.1711   -1.3687    3.8895 C   0  0  0  0  0  0  0  0  0  0  0  0
    1.2847   -2.1772    3.3762 S   0  0  0  0  0  0  0  0  0  0  0  0
    0.9769   -3.5828    4.3554 C   0  0  0  0  0  0  0  0  0  0  0  0
   -0.1591   -3.3697    5.1430 C   0  0  0  0  0  0  0  0  0  0  0  0
   -0.8231   -2.1383    4.8639 C   0  0  0  0  0  0  0  0  0  0  0  0
   -1.9260   -1.7867    5.5528 N   0  0  0  0  0  0  0  0  0  0  0  0
   -2.3705   -2.6412    6.4355 C   0  0  0  0  0  0  0  0  0  0  0  0
   -3.4563   -2.3510    7.1546 O   0  0  0  0  0  0  0  0  0  0  0  0
   -4.0465   -1.0762    6.9096 C   0  0  0  0  0  0  0  0  0  0  0  0
   -5.3272   -0.9833    7.7183 C   0  0  0  0  0  0  0  0  0  0  0  0
   -1.7347   -3.9091    6.6827 C   0  0  0  0  0  0  0  0  0  0  0  0
   -2.3304   -4.8639    7.6713 C   0  0  0  0  0  0  0  0  0  0  0  0
   -1.3717   -5.8650    8.0956 N   0  0  0  0  0  0  0  0  0  0  0  0
   -0.6483   -4.2439    6.0471 N   0  0  0  0  0  0  0  0  0  0  0  0
    1.8204   -4.7192    4.4311 C   0  0  0  0  0  0  0  0  0  0  0  0
    2.6394   -5.2048    3.4609 C   0  0  0  0  0  0  0  0  0  0  0  0
    2.5975   -4.8710    2.0745 C   0  0  0  0  0  0  0  0  0  0  0  0
    3.7329   -4.9931    1.2487 C   0  0  0  0  0  0  0  0  0  0  0  0
    4.9432   -5.3836    1.6526 N   0  0  0  0  0  0  0  0  0  0  0  0
    5.9559   -5.3090    0.4059 S   0  0  0  0  0  0  0  0  0  0  0  0
    4.9285   -4.7726   -0.7055 N   0  0  0  0  0  0  0  0  0  0  0  0
    3.7216   -4.6422   -0.1588 C   0  0  0  0  0  0  0  0  0  0  0  0
    2.5596   -4.1285   -0.7776 C   0  0  0  0  0  0  0  0  0  0  0  0
    1.4222   -4.0168    0.0621 C   0  0  0  0  0  0  0  0  0  0  0  0
    1.4100   -4.4843    1.4080 C   0  0  0  0  0  0  0  0  0  0  0  0
    0.2248   -4.6044    2.0307 N   0  0  0  0  0  0  0  0  0  0  0  0
   -0.8658   -4.1455    1.4885 C   0  0  0  0  0  0  0  0  0  0  0  0
   -2.1527   -4.4849    2.1781 C   0  0  0  0  0  0  0  0  0  0  0  0
   -2.7896   -5.7153    1.5274 C   0  0  0  0  0  0  0  0  0  0  0  0
   -0.7967   -3.4220    0.2567 C   0  0  0  0  0  0  0  0  0  0  0  0
   -1.9372   -2.6262   -0.2947 C   0  0  0  0  0  0  0  0  0  0  0  0
   -2.1318   -1.3437    0.5165 C   0  0  0  0  0  0  0  0  0  0  0  0
    0.3138   -3.4346   -0.4282 N   0  0  0  0  0  0  0  0  0  0  0  0
    2.4924   -3.6946   -2.1231 C   0  0  0  0  0  0  0  0  0  0  0  0
    1.3080   -2.5177   -2.5983 S   0  0  0  0  0  0  0  0  0  0  0  0
    1.8557   -2.4764   -4.2499 C   0  0  0  0  0  0  0  0  0  0  0  0
    2.8638   -3.4315   -4.4393 C   0  0  0  0  0  0  0  0  0  0  0  0
    3.2405   -4.0989   -3.2366 C   0  0  0  0  0  0  0  0  0  0  0  0
    4.1797   -5.0642   -3.2510 N   0  0  0  0  0  0  0  0  0  0  0  0
    4.7529   -5.3098   -4.3989 C   0  0  0  0  0  0  0  0  0  0  0  0
    5.6986   -6.2472   -4.4801 O   0  0  0  0  0  0  0  0  0  0  0  0
    6.0093   -6.9253   -3.2644 C   0  0  0  0  0  0  0  0  0  0  0  0
    7.2170   -7.8105   -3.5104 C   0  0  0  0  0  0  0  0  0  0  0  0
    4.4069   -4.6099   -5.6089 C   0  0  0  0  0  0  0  0  0  0  0  0
    5.1313   -4.9191   -6.8827 C   0  0  0  0  0  0  0  0  0  0  0  0
    4.3841   -4.4840   -8.0463 N   0  0  0  0  0  0  0  0  0  0  0  0
    3.4735   -3.7000   -5.6116 N   0  0  0  0  0  0  0  0  0  0  0  0
    1.3240   -1.5875   -5.2036 C   0  0  0  0  0  0  0  0  0  0  0  0
    0.5901   -0.5020   -4.8352 C   0  0  0  0  0  0  0  0  0  0  0  0
   -0.0232    0.4619   -5.6506 C   0  0  0  0  0  0  0  0  0  0  0  0
   -0.2515    0.4040   -7.3697 S   0  0  0  0  0  0  0  0  0  0  0  0
   -1.1298    1.9043   -7.4210 C   0  0  0  0  0  0  0  0  0  0  0  0
   -1.2291    2.4462   -6.1387 C   0  0  0  0  0  0  0  0  0  0  0  0
   -0.5905    1.6408   -5.1540 C   0  0  0  0  0  0  0  0  0  0  0  0
   -0.5092    2.0221   -3.8656 N   0  0  0  0  0  0  0  0  0  0  0  0
   -1.0764    3.1558   -3.5515 C   0  0  0  0  0  0  0  0  0  0  0  0
   -0.9741    3.6289   -2.3080 O   0  0  0  0  0  0  0  0  0  0  0  0
   -0.1240    2.8831   -1.4362 C   0  0  0  0  0  0  0  0  0  0  0  0
   -0.7532    1.5804   -0.9666 C   0  0  0  0  0  0  0  0  0  0  0  0
   -1.7980    3.9432   -4.5219 C   0  0  0  0  0  0  0  0  0  0  0  0
   -2.4990    5.2021   -4.0863 C   0  0  0  0  0  0  0  0  0  0  0  0
   -3.2731    5.8628   -5.1139 N   0  0  0  0  0  0  0  0  0  0  0  0
   -1.8558    3.5949   -5.7751 N   0  0  0  0  0  0  0  0  0  0  0  0
   -1.6214    2.3957   -8.6698 C   0  0  0  0  0  0  0  0  0  0  0  0
   -2.3160    3.5270   -8.8103 C   0  0  0  0  0  0  0  0  0  0  0  0
   -1.5660    7.6660    0.4485 H   0  0  0  0  0  0  0  0  0  0  0  0
   -5.5643    4.7834   -2.3079 H   0  0  0  0  0  0  0  0  0  0  0  0
   -5.1947    6.4503   -1.8389 H   0  0  0  0  0  0  0  0  0  0  0  0
   -6.4929    6.1813    0.2512 H   0  0  0  0  0  0  0  0  0  0  0  0
   -7.5051    5.8125   -1.1482 H   0  0  0  0  0  0  0  0  0  0  0  0
   -6.8579    4.5039   -0.1529 H   0  0  0  0  0  0  0  0  0  0  0  0
   -5.6187    2.8356   -1.3878 H   0  0  0  0  0  0  0  0  0  0  0  0
   -4.0943    1.9592   -1.5571 H   0  0  0  0  0  0  0  0  0  0  0  0
   -5.8293    2.0163    0.9590 H   0  0  0  0  0  0  0  0  0  0  0  0
   -4.2803    1.1925    0.8082 H   0  0  0  0  0  0  0  0  0  0  0  0
   -5.6644    0.6579   -0.1618 H   0  0  0  0  0  0  0  0  0  0  0  0
    4.1461    2.1461    0.0346 H   0  0  0  0  0  0  0  0  0  0  0  0
    3.0760    3.5604    0.1179 H   0  0  0  0  0  0  0  0  0  0  0  0
    3.7937    3.9872    2.4517 H   0  0  0  0  0  0  0  0  0  0  0  0
    4.8809    2.5991    2.3953 H   0  0  0  0  0  0  0  0  0  0  0  0
    5.1844    3.9976    1.3582 H   0  0  0  0  0  0  0  0  0  0  0  0
    4.7033    0.3242    1.3627 H   0  0  0  0  0  0  0  0  0  0  0  0
    3.8540   -1.0713    2.0623 H   0  0  0  0  0  0  0  0  0  0  0  0
    3.4882   -0.0580   -0.8046 H   0  0  0  0  0  0  0  0  0  0  0  0
    4.3740   -1.5090   -0.3228 H   0  0  0  0  0  0  0  0  0  0  0  0
    2.6293   -1.4107   -0.0690 H   0  0  0  0  0  0  0  0  0  0  0  0
   -4.2348   -0.9741    5.8358 H   0  0  0  0  0  0  0  0  0  0  0  0
   -3.3337   -0.2955    7.1989 H   0  0  0  0  0  0  0  0  0  0  0  0
   -5.1122   -1.1003    8.7771 H   0  0  0  0  0  0  0  0  0  0  0  0
   -6.0183   -1.7660    7.4174 H   0  0  0  0  0  0  0  0  0  0  0  0
   -5.7927   -0.0158    7.5547 H   0  0  0  0  0  0  0  0  0  0  0  0
   -3.2340   -5.2891    7.1971 H   0  0  0  0  0  0  0  0  0  0  0  0
   -2.6721   -4.2979    8.5462 H   0  0  0  0  0  0  0  0  0  0  0  0
   -0.7368   -6.0595    7.3282 H   0  0  0  0  0  0  0  0  0  0  0  0
   -1.8363   -6.7238    8.3648 H   0  0  0  0  0  0  0  0  0  0  0  0
    1.8048   -5.2188    5.3925 H   0  0  0  0  0  0  0  0  0  0  0  0
    3.3857   -5.9399    3.7327 H   0  0  0  0  0  0  0  0  0  0  0  0
   -1.9240   -4.7095    3.2209 H   0  0  0  0  0  0  0  0  0  0  0  0
   -2.8459   -3.6448    2.1426 H   0  0  0  0  0  0  0  0  0  0  0  0
   -2.1159   -6.5656    1.6020 H   0  0  0  0  0  0  0  0  0  0  0  0
   -2.9996   -5.5353    0.4750 H   0  0  0  0  0  0  0  0  0  0  0  0
   -3.7213   -5.9649    2.0292 H   0  0  0  0  0  0  0  0  0  0  0  0
   -1.6970   -2.3704   -1.3275 H   0  0  0  0  0  0  0  0  0  0  0  0
   -2.8557   -3.2153   -0.2793 H   0  0  0  0  0  0  0  0  0  0  0  0
   -2.9072   -0.7311    0.0642 H   0  0  0  0  0  0  0  0  0  0  0  0
   -2.4153   -1.5614    1.5437 H   0  0  0  0  0  0  0  0  0  0  0  0
   -1.2082   -0.7720    0.5353 H   0  0  0  0  0  0  0  0  0  0  0  0
    5.1382   -7.5152   -2.9564 H   0  0  0  0  0  0  0  0  0  0  0  0
    6.2017   -6.1806   -2.4845 H   0  0  0  0  0  0  0  0  0  0  0  0
    8.0679   -7.2072   -3.8151 H   0  0  0  0  0  0  0  0  0  0  0  0
    7.4691   -8.3461   -2.5998 H   0  0  0  0  0  0  0  0  0  0  0  0
    7.0022   -8.5284   -4.2975 H   0  0  0  0  0  0  0  0  0  0  0  0
    5.2932   -6.0020   -6.9425 H   0  0  0  0  0  0  0  0  0  0  0  0
    6.1305   -4.4537   -6.7992 H   0  0  0  0  0  0  0  0  0  0  0  0
    3.8515   -3.6546   -7.8058 H   0  0  0  0  0  0  0  0  0  0  0  0
    5.0040   -4.2653   -8.8168 H   0  0  0  0  0  0  0  0  0  0  0  0
    1.5609   -1.7780   -6.2413 H   0  0  0  0  0  0  0  0  0  0  0  0
    0.4636   -0.3064   -3.7766 H   0  0  0  0  0  0  0  0  0  0  0  0
    0.8135    2.6740   -1.9634 H   0  0  0  0  0  0  0  0  0  0  0  0
    0.0677    3.5439   -0.5887 H   0  0  0  0  0  0  0  0  0  0  0  0
   -1.0172    0.9611   -1.8191 H   0  0  0  0  0  0  0  0  0  0  0  0
   -1.6397    1.7894   -0.3714 H   0  0  0  0  0  0  0  0  0  0  0  0
   -0.0298    1.0448   -0.3595 H   0  0  0  0  0  0  0  0  0  0  0  0
   -3.1558    4.9592   -3.2442 H   0  0  0  0  0  0  0  0  0  0  0  0
   -1.7489    5.9023   -3.7023 H   0  0  0  0  0  0  0  0  0  0  0  0
   -3.9501    5.2113   -5.4991 H   0  0  0  0  0  0  0  0  0  0  0  0
   -2.6605    6.1313   -5.8775 H   0  0  0  0  0  0  0  0  0  0  0  0
   -1.3941    1.7776   -9.5291 H   0  0  0  0  0  0  0  0  0  0  0  0
   -2.5444    4.1426   -7.9590 H   0  0  0  0  0  0  0  0  0  0  0  0
   -2.6655    3.8526   -9.7740 H   0  0  0  0  0  0  0  0  0  0  0  0
  1  2  1  0  0  0  0
  2  3  2  0  0  0  0
  3  4  1  0  0  0  0
  4  5  1  0  0  0  0
  5  6  2  0  0  0  0
  6  7  1  0  0  0  0
  7  8  2  0  0  0  0
  8  9  1  0  0  0  0
  9 10  1  0  0  0  0
 10 11  2  0  0  0  0
 11 12  1  0  0  0  0
 12 13  1  0  0  0  0
 11 14  1  0  0  0  0
 14 15  1  0  0  0  0
 15 16  1  0  0  0  0
 14 17  2  0  0  0  0
  7 18  1  0  0  0  0
 18 19  1  0  0  0  0
 19 20  2  0  0  0  0
 20 21  1  0  0  0  0
 21 22  1  0  0  0  0
 22 23  2  0  0  0  0
 23 24  1  0  0  0  0
 24 25  2  0  0  0  0
 25 26  1  0  0  0  0
 26 27  1  0  0  0  0
 27 28  2  0  0  0  0
 28 29  1  0  0  0  0
 29 30  1  0  0  0  0
 28 31  1  0  0  0  0
 31 32  1  0  0  0  0
 32 33  1  0  0  0  0
 31 34  2  0  0  0  0
 24 35  1  0  0  0  0
 35 36  1  0  0  0  0
 36 37  1  0  0  0  0
 37 38  2  0  0  0  0
 38 39  1  0  0  0  0
 39 40  1  0  0  0  0
 40 41  2  0  0  0  0
 41 42  1  0  0  0  0
 42 43  1  0  0  0  0
 43 44  1  0  0  0  0
 41 45  1  0  0  0  0
 45 46  1  0  0  0  0
 46 47  1  0  0  0  0
 45 48  2  0  0  0  0
 37 49  1  0  0  0  0
 49 50  2  0  0  0  0
 50 51  1  0  0  0  0
 51 52  1  0  0  0  0
 52 53  2  0  0  0  0
 53 54  1  0  0  0  0
 54 55  1  0  0  0  0
 55 56  2  0  0  0  0
 56 57  1  0  0  0  0
 57 58  2  0  0  0  0
 58 59  1  0  0  0  0
 59 60  1  0  0  0  0
 60 61  2  0  0  0  0
 61 62  1  0  0  0  0
 62 63  1  0  0  0  0
 61 64  1  0  0  0  0
 64 65  1  0  0  0  0
 65 66  1  0  0  0  0
 64 67  2  0  0  0  0
 57 68  1  0  0  0  0
 68 69  1  0  0  0  0
 69 70  1  0  0  0  0
 70 71  2  0  0  0  0
 71 72  1  0  0  0  0
 72 73  1  0  0  0  0
 73 74  2  0  0  0  0
 74 75  1  0  0  0  0
 75 76  1  0  0  0  0
 76 77  1  0  0  0  0
 74 78  1  0  0  0  0
 78 79  1  0  0  0  0
 79 80  1  0  0  0  0
 78 81  2  0  0  0  0
 70 82  1  0  0  0  0
 82 83  2  0  0  0  0
 83 84  1  0  0  0  0
 84 85  1  0  0  0  0
 85 86  1  0  0  0  0
 86 87  2  0  0  0  0
 87 88  1  0  0  0  0
 88 89  1  0  0  0  0
 89 90  2  0  0  0  0
 90 91  1  0  0  0  0
 91 92  1  0  0  0  0
 92 93  1  0  0  0  0
 90 94  1  0  0  0  0
 94 95  1  0  0  0  0
 95 96  1  0  0  0  0
 94 97  2  0  0  0  0
 86 98  1  0  0  0  0
 98 99  2  0  0  0  0
  9  1  2  0  0  0  0
 26 18  2  0  0  0  0
 39 35  2  0  0  0  0
 59 51  2  0  0  0  0
 72 68  2  0  0  0  0
 88 84  2  0  0  0  0
  6  2  1  0  0  0  0
 17  8  1  0  0  0  0
 23 19  1  0  0  0  0
 34 25  1  0  0  0  0
 48 38  1  0  0  0  0
 56 52  1  0  0  0  0
 67 58  1  0  0  0  0
 81 71  1  0  0  0  0
 97 87  1  0  0  0  0
  1100  1  0  0  0  0
 12101  1  0  0  0  0
 12102  1  0  0  0  0
 13103  1  0  0  0  0
 13104  1  0  0  0  0
 13105  1  0  0  0  0
 15106  1  0  0  0  0
 15107  1  0  0  0  0
 16108  1  0  0  0  0
 16109  1  0  0  0  0
 16110  1  0  0  0  0
 29111  1  0  0  0  0
 29112  1  0  0  0  0
 30113  1  0  0  0  0
 30114  1  0  0  0  0
 30115  1  0  0  0  0
 32116  1  0  0  0  0
 32117  1  0  0  0  0
 33118  1  0  0  0  0
 33119  1  0  0  0  0
 33120  1  0  0  0  0
 43121  1  0  0  0  0
 43122  1  0  0  0  0
 44123  1  0  0  0  0
 44124  1  0  0  0  0
 44125  1  0  0  0  0
 46126  1  0  0  0  0
 46127  1  0  0  0  0
 47128  1  0  0  0  0
 47129  1  0  0  0  0
 49130  1  0  0  0  0
 50131  1  0  0  0  0
 62132  1  0  0  0  0
 62133  1  0  0  0  0
 63134  1  0  0  0  0
 63135  1  0  0  0  0
 63136  1  0  0  0  0
 65137  1  0  0  0  0
 65138  1  0  0  0  0
 66139  1  0  0  0  0
 66140  1  0  0  0  0
 66141  1  0  0  0  0
 76142  1  0  0  0  0
 76143  1  0  0  0  0
 77144  1  0  0  0  0
 77145  1  0  0  0  0
 77146  1  0  0  0  0
 79147  1  0  0  0  0
 79148  1  0  0  0  0
 80149  1  0  0  0  0
 80150  1  0  0  0  0
 82151  1  0  0  0  0
 83152  1  0  0  0  0
 92153  1  0  0  0  0
 92154  1  0  0  0  0
 93155  1  0  0  0  0
 93156  1  0  0  0  0
 93157  1  0  0  0  0
 95158  1  0  0  0  0
 95159  1  0  0  0  0
 96160  1  0  0  0  0
 96161  1  0  0  0  0
 98162  1  0  0  0  0
 99163  1  0  0  0  0
 99164  1  0  0  0  0
M  END
