104

C         11.26750        0.37870       -1.79110
S          9.73450        1.05680       -1.46250
C          8.94820       -0.49400       -1.41060
C          9.86900       -1.50180       -1.69120
C         11.21130       -0.99480       -1.86490
N         12.25960       -1.81820       -2.08380
C         11.98180       -3.08470       -2.16460
N         10.76410       -3.64450       -2.20410
C          9.71700       -2.87650       -2.00250
C          8.43820       -3.43570       -2.28130
N          7.43160       -3.86020       -2.62840
C          7.59220       -0.61770       -1.04220
S          6.43860        0.65190       -1.28790
C          5.13890       -0.25090       -0.54740
C          5.59920       -1.50870       -0.11370
C          7.00780       -1.68970       -0.36210
N          7.69830       -2.75080        0.08270
C          7.01940       -3.65060        0.73800
N          5.70100       -3.66490        0.91380
C          4.98860       -2.64030        0.47970
C          3.59140       -2.85420        0.63350
N          2.49240       -3.14490        0.77860
C          3.90440        0.40440       -0.46050
S          2.43470       -0.17510        0.26410
C          1.54480        1.27810       -0.09800
C          2.37970        2.20080       -0.75560
C          3.69170        1.70510       -0.95430
N          4.64280        2.43550       -1.56310
C          4.29150        3.62960       -1.97790
O          5.14860        4.42310       -2.60680
C          6.48830        3.95960       -2.77310
C          7.30840        4.13720       -1.50370
C          2.95490        4.13530       -1.78910
C          2.59140        5.50960       -2.28670
N          1.22360        5.90700       -2.04580
N          2.03640        3.42980       -1.18950
C          0.19030        1.34540        0.23430
C         -0.61800        2.43140        0.01840
C         -1.99110        2.41240        0.29020
S         -2.99330        3.80770        0.01920
C         -4.47580        2.98540        0.40990
C         -4.17940        1.66750        0.80020
C         -2.79800        1.34340        0.72880
N         -2.35460        0.11300        1.04530
C         -3.24910       -0.77070        1.41300
O         -2.87800       -2.00160        1.75640
C         -1.47660       -2.29880        1.77520
C         -0.91070       -2.59300        0.39560
C         -4.64690       -0.44490        1.50820
C         -5.64380       -1.46950        1.96560
N         -5.68180       -2.60450        1.05120
N         -5.07850        0.74860        1.21720
C         -5.69600        3.70710        0.38040
C         -6.96200        3.21800        0.24750
C         -7.31410        1.91170       -0.15810
S         -6.30270        0.92800       -1.13970
C         -7.30820       -0.47630       -0.97660
C         -8.44710       -0.17230       -0.22130
C         -8.48570        1.21370        0.18270
N         -9.50860        1.74030        0.86310
C        -10.48400        0.92350        1.16690
N        -10.47770       -0.39820        1.01480
C         -9.46690       -0.95650        0.37400
C         -9.40380       -2.37230        0.45890
N         -9.33710       -3.50540        0.61690
C         -6.79140       -1.66600       -1.52910
S         -7.63010       -3.12960       -1.89230
C         -6.21260       -3.93850       -2.40640
C         -5.10620       -3.12920       -2.31850
C         -5.42930       -1.81150       -1.84340
N         -4.50770       -0.85540       -1.70370
C         -3.27840       -1.17620       -2.01470
N         -2.84750       -2.36400       -2.44480
C         -3.72340       -3.33260       -2.59400
C         -3.27550       -4.60780       -3.02710
N         -2.96640       -5.65590       -3.37130
H         12.13250        1.00190       -1.88530
H         12.81190       -3.76850       -2.27960
H          7.56640       -4.48680        1.15030
H          6.88890        4.57140       -3.58400
H          6.47300        2.90680       -3.07000
H          8.32950        3.81600       -1.68430
H          7.31000        5.18110       -1.20010
H          6.89070        3.53410       -0.70230
H          2.78810        5.55080       -3.36370
H          3.26000        6.23780       -1.81430
H          0.59160        5.24780       -2.48860
H          1.02890        5.88010       -1.05010
H         -0.24440        0.46320        0.67950
H         -0.19320        3.33440       -0.39540
H         -1.39760       -3.17760        2.41890
H         -0.94690       -1.45870        2.23470
H         -1.01860       -1.72930       -0.25450
H         -1.42710       -3.43490       -0.05900
H          0.14380       -2.83590        0.48930
H         -5.37850       -1.75900        2.99740
H         -6.63160       -1.00180        1.98220
H         -6.37960       -3.27140        1.36670
H         -4.78050       -3.07300        1.06230
H         -5.58840        4.77690        0.51220
H         -7.79410        3.87150        0.47410
H        -11.35680        1.34340        1.64670
H         -6.26670       -4.95420       -2.74290
H         -2.52590       -0.40530       -1.91490
