
  xtb     02282219123D
 energy: -240.040688686265 gnorm: 0.000187577353 xtb: 6.4.1 (unknown)
143157  0     0  0            999 V2000
    7.3723   10.6204   12.8571 C   0  0  0  0  0  0  0  0  0  0  0  0
    6.6393    9.0854   13.2010 S   0  0  0  0  0  0  0  0  0  0  0  0
    5.5866    9.2824   11.8473 C   0  0  0  0  0  0  0  0  0  0  0  0
    4.5540    8.6424   11.1539 C   0  0  0  0  0  0  0  0  0  0  0  0
    4.1965    9.4929   10.0902 C   0  0  0  0  0  0  0  0  0  0  0  0
    4.9881   10.6126   10.1051 N   0  0  0  0  0  0  0  0  0  0  0  0
    4.8708   11.7489    9.2312 C   0  0  0  0  0  0  0  0  0  0  0  0
    3.8550   12.7623    9.7565 C   0  0  0  0  0  0  0  0  0  0  0  0
    5.8261   10.4985   11.1842 C   0  0  0  0  0  0  0  0  0  0  0  0
    6.8551   11.2591   11.7737 C   0  0  0  0  0  0  0  0  0  0  0  0
    3.1691    8.9846    9.2866 C   0  0  0  0  0  0  0  0  0  0  0  0
    2.7440    7.7490    9.7259 C   0  0  0  0  0  0  0  0  0  0  0  0
    3.6099    7.1999   11.1558 S   0  0  0  0  0  0  0  0  0  0  0  0
    1.7546    6.9155    9.1343 C   0  0  0  0  0  0  0  0  0  0  0  0
    1.4887    5.2929    9.7594 S   0  0  0  0  0  0  0  0  0  0  0  0
    0.3206    4.9941    8.5257 C   0  0  0  0  0  0  0  0  0  0  0  0
   -0.4991    3.9870    8.0181 C   0  0  0  0  0  0  0  0  0  0  0  0
   -1.1503    4.5311    6.8880 C   0  0  0  0  0  0  0  0  0  0  0  0
   -0.7456    5.8277    6.6978 N   0  0  0  0  0  0  0  0  0  0  0  0
   -1.2465    6.7360    5.7016 C   0  0  0  0  0  0  0  0  0  0  0  0
   -2.4902    7.4771    6.1902 C   0  0  0  0  0  0  0  0  0  0  0  0
    0.1481    6.1218    7.6952 C   0  0  0  0  0  0  0  0  0  0  0  0
    0.9590    7.2050    8.0444 C   0  0  0  0  0  0  0  0  0  0  0  0
   -1.9556    3.6146    6.2135 C   0  0  0  0  0  0  0  0  0  0  0  0
   -1.9144    2.3700    6.8142 C   0  0  0  0  0  0  0  0  0  0  0  0
   -0.9070    2.3241    8.2567 S   0  0  0  0  0  0  0  0  0  0  0  0
   -2.4670    1.1656    6.3405 C   0  0  0  0  0  0  0  0  0  0  0  0
   -3.3200    1.0293    4.8302 S   0  0  0  0  0  0  0  0  0  0  0  0
   -3.3578   -0.7169    4.8871 C   0  0  0  0  0  0  0  0  0  0  0  0
   -2.7798   -1.1567    6.0815 C   0  0  0  0  0  0  0  0  0  0  0  0
   -2.2840   -0.0990    6.8945 C   0  0  0  0  0  0  0  0  0  0  0  0
   -1.6594   -0.3342    8.0679 N   0  0  0  0  0  0  0  0  0  0  0  0
   -1.5453   -1.5871    8.4188 C   0  0  0  0  0  0  0  0  0  0  0  0
   -0.9276   -1.9288    9.5498 O   0  0  0  0  0  0  0  0  0  0  0  0
   -0.4038   -0.8695   10.3484 C   0  0  0  0  0  0  0  0  0  0  0  0
   -1.4893   -0.1504   11.1362 C   0  0  0  0  0  0  0  0  0  0  0  0
   -2.0615   -2.6667    7.6091 C   0  0  0  0  0  0  0  0  0  0  0  0
   -1.9208   -4.0902    8.0799 C   0  0  0  0  0  0  0  0  0  0  0  0
   -2.4780   -5.0870    7.1924 N   0  0  0  0  0  0  0  0  0  0  0  0
   -2.6546   -2.4452    6.4714 N   0  0  0  0  0  0  0  0  0  0  0  0
   -3.7404   -1.5083    3.7906 C   0  0  0  0  0  0  0  0  0  0  0  0
   -4.2943   -1.0329    2.6433 C   0  0  0  0  0  0  0  0  0  0  0  0
   -4.3826   -1.7562    1.4338 C   0  0  0  0  0  0  0  0  0  0  0  0
   -3.5375   -3.2962    1.2503 S   0  0  0  0  0  0  0  0  0  0  0  0
   -3.8627   -3.2845   -0.4426 C   0  0  0  0  0  0  0  0  0  0  0  0
   -3.5322   -3.9560   -1.6149 C   0  0  0  0  0  0  0  0  0  0  0  0
   -4.1355   -3.2423   -2.6773 C   0  0  0  0  0  0  0  0  0  0  0  0
   -4.8187   -2.1629   -2.1777 N   0  0  0  0  0  0  0  0  0  0  0  0
   -5.6155   -1.2450   -2.9464 C   0  0  0  0  0  0  0  0  0  0  0  0
   -7.0112   -1.8045   -3.2177 C   0  0  0  0  0  0  0  0  0  0  0  0
   -4.6509   -2.1701   -0.8164 C   0  0  0  0  0  0  0  0  0  0  0  0
   -4.9363   -1.3123    0.2447 C   0  0  0  0  0  0  0  0  0  0  0  0
   -3.7970   -3.7221   -3.9402 C   0  0  0  0  0  0  0  0  0  0  0  0
   -2.9153   -4.7859   -3.8584 C   0  0  0  0  0  0  0  0  0  0  0  0
   -2.5503   -5.2505   -2.1970 S   0  0  0  0  0  0  0  0  0  0  0  0
   -2.2351   -5.3888   -4.9363 C   0  0  0  0  0  0  0  0  0  0  0  0
   -0.9896   -6.5751   -4.6964 S   0  0  0  0  0  0  0  0  0  0  0  0
   -0.5072   -6.5802   -6.3674 C   0  0  0  0  0  0  0  0  0  0  0  0
   -1.3397   -5.7189   -7.0976 C   0  0  0  0  0  0  0  0  0  0  0  0
   -2.3108   -5.0516   -6.2915 C   0  0  0  0  0  0  0  0  0  0  0  0
   -3.1780   -4.1664   -6.8347 N   0  0  0  0  0  0  0  0  0  0  0  0
   -3.0837   -3.9735   -8.1238 C   0  0  0  0  0  0  0  0  0  0  0  0
   -3.9095   -3.1113   -8.7284 O   0  0  0  0  0  0  0  0  0  0  0  0
   -4.8700   -2.4728   -7.8954 C   0  0  0  0  0  0  0  0  0  0  0  0
   -5.7641   -1.6162   -8.7734 C   0  0  0  0  0  0  0  0  0  0  0  0
   -2.1213   -4.6562   -8.9459 C   0  0  0  0  0  0  0  0  0  0  0  0
   -2.0648   -4.3808  -10.4185 C   0  0  0  0  0  0  0  0  0  0  0  0
   -1.5334   -5.5124  -11.1513 N   0  0  0  0  0  0  0  0  0  0  0  0
   -1.2733   -5.4975   -8.4265 N   0  0  0  0  0  0  0  0  0  0  0  0
    0.6265   -7.3063   -6.7749 C   0  0  0  0  0  0  0  0  0  0  0  0
    1.1978   -7.1909   -8.0056 C   0  0  0  0  0  0  0  0  0  0  0  0
    2.3933   -7.8152   -8.3995 C   0  0  0  0  0  0  0  0  0  0  0  0
    3.2819   -8.9476   -7.4231 S   0  0  0  0  0  0  0  0  0  0  0  0
    4.5693   -9.1133   -8.5736 C   0  0  0  0  0  0  0  0  0  0  0  0
    4.3235   -8.3029   -9.6815 C   0  0  0  0  0  0  0  0  0  0  0  0
    3.0924   -7.5849   -9.5882 C   0  0  0  0  0  0  0  0  0  0  0  0
    2.6893   -6.7437  -10.5668 N   0  0  0  0  0  0  0  0  0  0  0  0
    3.4963   -6.6168  -11.5852 C   0  0  0  0  0  0  0  0  0  0  0  0
    3.1785   -5.7942  -12.5908 O   0  0  0  0  0  0  0  0  0  0  0  0
    1.9239   -5.1306  -12.4764 C   0  0  0  0  0  0  0  0  0  0  0  0
    1.7723   -4.1937  -13.6611 C   0  0  0  0  0  0  0  0  0  0  0  0
    4.7523   -7.3189  -11.6809 C   0  0  0  0  0  0  0  0  0  0  0  0
    5.6422   -7.0600  -12.8575 C   0  0  0  0  0  0  0  0  0  0  0  0
    6.7074   -8.0354  -12.9535 N   0  0  0  0  0  0  0  0  0  0  0  0
    5.1423   -8.1361  -10.7485 N   0  0  0  0  0  0  0  0  0  0  0  0
    5.6633   -9.9906   -8.2950 C   0  0  0  0  0  0  0  0  0  0  0  0
    6.6475  -10.2644   -9.1538 C   0  0  0  0  0  0  0  0  0  0  0  0
    8.1608   10.9601   13.4986 H   0  0  0  0  0  0  0  0  0  0  0  0
    4.5673   11.3913    8.2431 H   0  0  0  0  0  0  0  0  0  0  0  0
    5.8556   12.2160    9.1429 H   0  0  0  0  0  0  0  0  0  0  0  0
    3.7836   13.6080    9.0779 H   0  0  0  0  0  0  0  0  0  0  0  0
    4.1570   13.1231   10.7369 H   0  0  0  0  0  0  0  0  0  0  0  0
    2.8751   12.2993    9.8463 H   0  0  0  0  0  0  0  0  0  0  0  0
    7.1961   12.2178   11.4272 H   0  0  0  0  0  0  0  0  0  0  0  0
    2.7590    9.4776    8.4248 H   0  0  0  0  0  0  0  0  0  0  0  0
   -0.4542    7.4499    5.4596 H   0  0  0  0  0  0  0  0  0  0  0  0
   -1.4824    6.1609    4.8019 H   0  0  0  0  0  0  0  0  0  0  0  0
   -3.2797    6.7680    6.4274 H   0  0  0  0  0  0  0  0  0  0  0  0
   -2.8481    8.1567    5.4216 H   0  0  0  0  0  0  0  0  0  0  0  0
   -2.2591    8.0491    7.0858 H   0  0  0  0  0  0  0  0  0  0  0  0
    0.9795    8.1505    7.5351 H   0  0  0  0  0  0  0  0  0  0  0  0
   -2.5256    3.8042    5.3219 H   0  0  0  0  0  0  0  0  0  0  0  0
    0.1201   -0.1576    9.7030 H   0  0  0  0  0  0  0  0  0  0  0  0
    0.3050   -1.3606   11.0189 H   0  0  0  0  0  0  0  0  0  0  0  0
   -2.1692    0.3512   10.4534 H   0  0  0  0  0  0  0  0  0  0  0  0
   -2.0477   -0.8586   11.7438 H   0  0  0  0  0  0  0  0  0  0  0  0
   -1.0319    0.5926   11.7825 H   0  0  0  0  0  0  0  0  0  0  0  0
   -0.8566   -4.3033    8.2296 H   0  0  0  0  0  0  0  0  0  0  0  0
   -2.4036   -4.1798    9.0596 H   0  0  0  0  0  0  0  0  0  0  0  0
   -3.4608   -4.8854    7.0352 H   0  0  0  0  0  0  0  0  0  0  0  0
   -2.0248   -5.0230    6.2860 H   0  0  0  0  0  0  0  0  0  0  0  0
   -3.4964   -2.5592    3.8775 H   0  0  0  0  0  0  0  0  0  0  0  0
   -4.6187    0.0001    2.6056 H   0  0  0  0  0  0  0  0  0  0  0  0
   -5.6867   -0.3070   -2.3903 H   0  0  0  0  0  0  0  0  0  0  0  0
   -5.1012   -1.0520   -3.8929 H   0  0  0  0  0  0  0  0  0  0  0  0
   -7.5923   -1.0961   -3.8018 H   0  0  0  0  0  0  0  0  0  0  0  0
   -7.5291   -1.9948   -2.2806 H   0  0  0  0  0  0  0  0  0  0  0  0
   -6.9387   -2.7389   -3.7691 H   0  0  0  0  0  0  0  0  0  0  0  0
   -5.4898   -0.3934    0.1742 H   0  0  0  0  0  0  0  0  0  0  0  0
   -4.1147   -3.3265   -4.8857 H   0  0  0  0  0  0  0  0  0  0  0  0
   -4.3447   -1.8632   -7.1496 H   0  0  0  0  0  0  0  0  0  0  0  0
   -5.4480   -3.2386   -7.3645 H   0  0  0  0  0  0  0  0  0  0  0  0
   -6.5072   -1.1131   -8.1614 H   0  0  0  0  0  0  0  0  0  0  0  0
   -6.2694   -2.2370   -9.5082 H   0  0  0  0  0  0  0  0  0  0  0  0
   -5.1707   -0.8722   -9.2978 H   0  0  0  0  0  0  0  0  0  0  0  0
   -3.0770   -4.1661  -10.7779 H   0  0  0  0  0  0  0  0  0  0  0  0
   -1.4733   -3.4536  -10.5462 H   0  0  0  0  0  0  0  0  0  0  0  0
   -1.1953   -5.2238  -12.0614 H   0  0  0  0  0  0  0  0  0  0  0  0
   -0.7676   -5.9245  -10.6292 H   0  0  0  0  0  0  0  0  0  0  0  0
    1.0916   -7.9400   -6.0298 H   0  0  0  0  0  0  0  0  0  0  0  0
    0.7482   -6.5378   -8.7387 H   0  0  0  0  0  0  0  0  0  0  0  0
    1.1290   -5.8858  -12.4579 H   0  0  0  0  0  0  0  0  0  0  0  0
    1.8959   -4.5838  -11.5263 H   0  0  0  0  0  0  0  0  0  0  0  0
    2.5799   -3.4666  -13.6684 H   0  0  0  0  0  0  0  0  0  0  0  0
    0.8237   -3.6679  -13.5975 H   0  0  0  0  0  0  0  0  0  0  0  0
    1.8050   -4.7565  -14.5901 H   0  0  0  0  0  0  0  0  0  0  0  0
    5.0376   -7.1006  -13.7711 H   0  0  0  0  0  0  0  0  0  0  0  0
    5.9978   -6.0163  -12.7600 H   0  0  0  0  0  0  0  0  0  0  0  0
    7.4670   -7.6844  -13.5245 H   0  0  0  0  0  0  0  0  0  0  0  0
    7.0604   -8.2395  -12.0250 H   0  0  0  0  0  0  0  0  0  0  0  0
    5.6458  -10.4467   -7.3130 H   0  0  0  0  0  0  0  0  0  0  0  0
    6.6590   -9.8299  -10.1371 H   0  0  0  0  0  0  0  0  0  0  0  0
    7.4486  -10.9321   -8.8893 H   0  0  0  0  0  0  0  0  0  0  0  0
  1  2  1  0  0  0  0
  2  3  1  0  0  0  0
  3  4  1  0  0  0  0
  4  5  2  0  0  0  0
  5  6  1  0  0  0  0
  6  7  1  0  0  0  0
  7  8  1  0  0  0  0
  6  9  1  0  0  0  0
  9 10  1  0  0  0  0
  5 11  1  0  0  0  0
 11 12  2  0  0  0  0
 12 13  1  0  0  0  0
 12 14  1  0  0  0  0
 14 15  1  0  0  0  0
 15 16  1  0  0  0  0
 16 17  1  0  0  0  0
 17 18  2  0  0  0  0
 18 19  1  0  0  0  0
 19 20  1  0  0  0  0
 20 21  1  0  0  0  0
 19 22  1  0  0  0  0
 22 23  1  0  0  0  0
 18 24  1  0  0  0  0
 24 25  2  0  0  0  0
 25 26  1  0  0  0  0
 25 27  1  0  0  0  0
 27 28  1  0  0  0  0
 28 29  1  0  0  0  0
 29 30  2  0  0  0  0
 30 31  1  0  0  0  0
 31 32  1  0  0  0  0
 32 33  2  0  0  0  0
 33 34  1  0  0  0  0
 34 35  1  0  0  0  0
 35 36  1  0  0  0  0
 33 37  1  0  0  0  0
 37 38  1  0  0  0  0
 38 39  1  0  0  0  0
 37 40  2  0  0  0  0
 29 41  1  0  0  0  0
 41 42  2  0  0  0  0
 42 43  1  0  0  0  0
 43 44  1  0  0  0  0
 44 45  1  0  0  0  0
 45 46  1  0  0  0  0
 46 47  2  0  0  0  0
 47 48  1  0  0  0  0
 48 49  1  0  0  0  0
 49 50  1  0  0  0  0
 48 51  1  0  0  0  0
 51 52  1  0  0  0  0
 47 53  1  0  0  0  0
 53 54  2  0  0  0  0
 54 55  1  0  0  0  0
 54 56  1  0  0  0  0
 56 57  1  0  0  0  0
 57 58  1  0  0  0  0
 58 59  2  0  0  0  0
 59 60  1  0  0  0  0
 60 61  1  0  0  0  0
 61 62  2  0  0  0  0
 62 63  1  0  0  0  0
 63 64  1  0  0  0  0
 64 65  1  0  0  0  0
 62 66  1  0  0  0  0
 66 67  1  0  0  0  0
 67 68  1  0  0  0  0
 66 69  2  0  0  0  0
 58 70  1  0  0  0  0
 70 71  2  0  0  0  0
 71 72  1  0  0  0  0
 72 73  1  0  0  0  0
 73 74  1  0  0  0  0
 74 75  2  0  0  0  0
 75 76  1  0  0  0  0
 76 77  1  0  0  0  0
 77 78  2  0  0  0  0
 78 79  1  0  0  0  0
 79 80  1  0  0  0  0
 80 81  1  0  0  0  0
 78 82  1  0  0  0  0
 82 83  1  0  0  0  0
 83 84  1  0  0  0  0
 82 85  2  0  0  0  0
 74 86  1  0  0  0  0
 86 87  2  0  0  0  0
 10  1  2  0  0  0  0
 23 14  2  0  0  0  0
 31 27  2  0  0  0  0
 52 43  2  0  0  0  0
 60 56  2  0  0  0  0
 76 72  2  0  0  0  0
  9  3  2  0  0  0  0
 22 16  2  0  0  0  0
 40 30  1  0  0  0  0
 51 45  2  0  0  0  0
 69 59  1  0  0  0  0
 85 75  1  0  0  0  0
 13  4  1  0  0  0  0
 26 17  1  0  0  0  0
 55 46  1  0  0  0  0
  1 88  1  0  0  0  0
  7 89  1  0  0  0  0
  7 90  1  0  0  0  0
  8 91  1  0  0  0  0
  8 92  1  0  0  0  0
  8 93  1  0  0  0  0
 10 94  1  0  0  0  0
 11 95  1  0  0  0  0
 20 96  1  0  0  0  0
 20 97  1  0  0  0  0
 21 98  1  0  0  0  0
 21 99  1  0  0  0  0
 21100  1  0  0  0  0
 23101  1  0  0  0  0
 24102  1  0  0  0  0
 35103  1  0  0  0  0
 35104  1  0  0  0  0
 36105  1  0  0  0  0
 36106  1  0  0  0  0
 36107  1  0  0  0  0
 38108  1  0  0  0  0
 38109  1  0  0  0  0
 39110  1  0  0  0  0
 39111  1  0  0  0  0
 41112  1  0  0  0  0
 42113  1  0  0  0  0
 49114  1  0  0  0  0
 49115  1  0  0  0  0
 50116  1  0  0  0  0
 50117  1  0  0  0  0
 50118  1  0  0  0  0
 52119  1  0  0  0  0
 53120  1  0  0  0  0
 64121  1  0  0  0  0
 64122  1  0  0  0  0
 65123  1  0  0  0  0
 65124  1  0  0  0  0
 65125  1  0  0  0  0
 67126  1  0  0  0  0
 67127  1  0  0  0  0
 68128  1  0  0  0  0
 68129  1  0  0  0  0
 70130  1  0  0  0  0
 71131  1  0  0  0  0
 80132  1  0  0  0  0
 80133  1  0  0  0  0
 81134  1  0  0  0  0
 81135  1  0  0  0  0
 81136  1  0  0  0  0
 83137  1  0  0  0  0
 83138  1  0  0  0  0
 84139  1  0  0  0  0
 84140  1  0  0  0  0
 86141  1  0  0  0  0
 87142  1  0  0  0  0
 87143  1  0  0  0  0
M  END
