
  xtb     02282220063D
 energy: -226.694732690020 gnorm: 0.000281896140 xtb: 6.4.1 (unknown)
131145  0     0  0            999 V2000
    2.9527    2.3297   -9.1251 C   0  0  0  0  0  0  0  0  0  0  0  0
    3.8597    1.0305   -8.4238 S   0  0  0  0  0  0  0  0  0  0  0  0
    3.0078    1.2183   -6.9157 C   0  0  0  0  0  0  0  0  0  0  0  0
    3.2058    0.4818   -5.7675 C   0  0  0  0  0  0  0  0  0  0  0  0
    2.4275    0.7921   -4.6541 C   0  0  0  0  0  0  0  0  0  0  0  0
    2.4517    0.1974   -3.3663 C   0  0  0  0  0  0  0  0  0  0  0  0
    1.5710    0.7563   -2.4895 C   0  0  0  0  0  0  0  0  0  0  0  0
    0.6451    2.0547   -3.2176 S   0  0  0  0  0  0  0  0  0  0  0  0
    1.4719    1.8380   -4.7361 C   0  0  0  0  0  0  0  0  0  0  0  0
    1.2715    2.5701   -5.8851 C   0  0  0  0  0  0  0  0  0  0  0  0
    2.0515    2.2617   -6.9966 C   0  0  0  0  0  0  0  0  0  0  0  0
    2.0483    2.8733   -8.2847 C   0  0  0  0  0  0  0  0  0  0  0  0
    1.3693    0.4222   -1.1181 C   0  0  0  0  0  0  0  0  0  0  0  0
    2.2743   -0.9026   -0.4056 S   0  0  0  0  0  0  0  0  0  0  0  0
    1.5413   -0.6077    1.1487 C   0  0  0  0  0  0  0  0  0  0  0  0
    1.8148   -1.2838    2.3162 C   0  0  0  0  0  0  0  0  0  0  0  0
    1.1545   -0.8799    3.4765 C   0  0  0  0  0  0  0  0  0  0  0  0
    1.2921   -1.3871    4.7915 C   0  0  0  0  0  0  0  0  0  0  0  0
    0.4895   -0.7611    5.7024 C   0  0  0  0  0  0  0  0  0  0  0  0
   -0.4883    0.5018    4.9706 S   0  0  0  0  0  0  0  0  0  0  0  0
    0.2114    0.1809    3.4073 C   0  0  0  0  0  0  0  0  0  0  0  0
   -0.0658    0.8533    2.2390 C   0  0  0  0  0  0  0  0  0  0  0  0
    0.6173    0.4677    1.0855 C   0  0  0  0  0  0  0  0  0  0  0  0
    0.5466    1.0281   -0.2149 C   0  0  0  0  0  0  0  0  0  0  0  0
    0.3191   -1.0812    7.0753 C   0  0  0  0  0  0  0  0  0  0  0  0
   -0.9709   -0.3703    7.9855 S   0  0  0  0  0  0  0  0  0  0  0  0
   -0.7577   -1.4323    9.3345 C   0  0  0  0  0  0  0  0  0  0  0  0
    0.3652   -2.2195    9.1382 C   0  0  0  0  0  0  0  0  0  0  0  0
    0.9643   -2.0415    7.8457 C   0  0  0  0  0  0  0  0  0  0  0  0
    2.0227   -2.7926    7.4617 N   0  0  0  0  0  0  0  0  0  0  0  0
    2.4648   -3.6615    8.3279 C   0  0  0  0  0  0  0  0  0  0  0  0
    3.4987   -4.4531    8.0297 O   0  0  0  0  0  0  0  0  0  0  0  0
    4.0902   -4.2948    6.7436 C   0  0  0  0  0  0  0  0  0  0  0  0
    4.9430   -3.0374    6.6443 C   0  0  0  0  0  0  0  0  0  0  0  0
    1.8749   -3.8344    9.6378 C   0  0  0  0  0  0  0  0  0  0  0  0
    2.4432   -4.8580   10.5705 C   0  0  0  0  0  0  0  0  0  0  0  0
    2.0233   -4.6310   11.9385 N   0  0  0  0  0  0  0  0  0  0  0  0
    0.8477   -3.1348   10.0125 N   0  0  0  0  0  0  0  0  0  0  0  0
   -1.8003   -1.5812   10.3367 C   0  0  0  0  0  0  0  0  0  0  0  0
   -3.0642   -1.8355    9.9750 C   0  0  0  0  0  0  0  0  0  0  0  0
   -3.3780   -2.0117    8.5581 C   0  0  0  0  0  0  0  0  0  0  0  0
   -2.5821   -3.3409    7.7166 S   0  0  0  0  0  0  0  0  0  0  0  0
   -2.9234   -2.6028    6.1746 C   0  0  0  0  0  0  0  0  0  0  0  0
   -2.4035   -2.9965    4.9635 C   0  0  0  0  0  0  0  0  0  0  0  0
   -2.6494   -2.1833    3.8575 C   0  0  0  0  0  0  0  0  0  0  0  0
   -2.1433   -2.3125    2.5434 C   0  0  0  0  0  0  0  0  0  0  0  0
   -2.5295   -1.2972    1.7127 C   0  0  0  0  0  0  0  0  0  0  0  0
   -3.5613   -0.1273    2.5129 S   0  0  0  0  0  0  0  0  0  0  0  0
   -3.4549   -1.0236    4.0065 C   0  0  0  0  0  0  0  0  0  0  0  0
   -4.0076   -0.6574    5.2145 C   0  0  0  0  0  0  0  0  0  0  0  0
   -3.7236   -1.4424    6.3289 C   0  0  0  0  0  0  0  0  0  0  0  0
   -3.9877   -1.1583    7.7011 C   0  0  0  0  0  0  0  0  0  0  0  0
   -2.1934   -1.0939    0.3567 C   0  0  0  0  0  0  0  0  0  0  0  0
   -1.2043   -2.1765   -0.5697 S   0  0  0  0  0  0  0  0  0  0  0  0
   -1.2902   -1.1997   -2.0082 C   0  0  0  0  0  0  0  0  0  0  0  0
   -2.0719   -0.0643   -1.7606 C   0  0  0  0  0  0  0  0  0  0  0  0
   -2.5705   -0.0093   -0.4279 C   0  0  0  0  0  0  0  0  0  0  0  0
   -3.3219    1.0234    0.0105 N   0  0  0  0  0  0  0  0  0  0  0  0
   -3.5517    1.9790   -0.8496 C   0  0  0  0  0  0  0  0  0  0  0  0
   -4.2598    3.0551   -0.5083 O   0  0  0  0  0  0  0  0  0  0  0  0
   -4.7881    3.0928    0.8160 C   0  0  0  0  0  0  0  0  0  0  0  0
   -6.0313    2.2269    0.9585 C   0  0  0  0  0  0  0  0  0  0  0  0
   -3.0438    1.9374   -2.1996 C   0  0  0  0  0  0  0  0  0  0  0  0
   -3.3179    3.0674   -3.1557 C   0  0  0  0  0  0  0  0  0  0  0  0
   -2.6650    2.9313   -4.4413 N   0  0  0  0  0  0  0  0  0  0  0  0
   -2.3336    0.9345   -2.6299 N   0  0  0  0  0  0  0  0  0  0  0  0
   -0.5865   -1.5665   -3.1699 C   0  0  0  0  0  0  0  0  0  0  0  0
   -0.6658   -0.8939   -4.3515 C   0  0  0  0  0  0  0  0  0  0  0  0
    0.1013   -1.2001   -5.4881 C   0  0  0  0  0  0  0  0  0  0  0  0
    1.3326   -2.4329   -5.5001 S   0  0  0  0  0  0  0  0  0  0  0  0
    1.7846   -2.1205   -7.1422 C   0  0  0  0  0  0  0  0  0  0  0  0
    0.9891   -1.1065   -7.6674 C   0  0  0  0  0  0  0  0  0  0  0  0
    0.0486   -0.5748   -6.7369 C   0  0  0  0  0  0  0  0  0  0  0  0
   -0.7799    0.4403   -7.0757 N   0  0  0  0  0  0  0  0  0  0  0  0
   -0.6702    0.8817   -8.3014 C   0  0  0  0  0  0  0  0  0  0  0  0
   -1.4265    1.8892   -8.7322 O   0  0  0  0  0  0  0  0  0  0  0  0
   -2.3494    2.4416   -7.7958 C   0  0  0  0  0  0  0  0  0  0  0  0
   -3.0597    3.6084   -8.4556 C   0  0  0  0  0  0  0  0  0  0  0  0
    0.2537    0.3227   -9.2601 C   0  0  0  0  0  0  0  0  0  0  0  0
    0.2869    0.8468  -10.6709 C   0  0  0  0  0  0  0  0  0  0  0  0
    1.2980    0.2504  -11.5165 N   0  0  0  0  0  0  0  0  0  0  0  0
    1.0635   -0.6406   -8.9375 N   0  0  0  0  0  0  0  0  0  0  0  0
    2.8376   -2.8028   -7.8220 C   0  0  0  0  0  0  0  0  0  0  0  0
    3.6060   -3.7523   -7.2866 C   0  0  0  0  0  0  0  0  0  0  0  0
    3.1577    2.6067  -10.1413 H   0  0  0  0  0  0  0  0  0  0  0  0
    3.9384   -0.3089   -5.7261 H   0  0  0  0  0  0  0  0  0  0  0  0
    3.1044   -0.6152   -3.0999 H   0  0  0  0  0  0  0  0  0  0  0  0
    0.5426    3.3643   -5.9269 H   0  0  0  0  0  0  0  0  0  0  0  0
    1.3933    3.6849   -8.5474 H   0  0  0  0  0  0  0  0  0  0  0  0
    2.5283   -2.0920    2.3420 H   0  0  0  0  0  0  0  0  0  0  0  0
    1.9513   -2.1894    5.0659 H   0  0  0  0  0  0  0  0  0  0  0  0
   -0.7848    1.6567    2.2087 H   0  0  0  0  0  0  0  0  0  0  0  0
   -0.0818    1.8647   -0.4683 H   0  0  0  0  0  0  0  0  0  0  0  0
    3.2982   -4.2764    5.9874 H   0  0  0  0  0  0  0  0  0  0  0  0
    4.7022   -5.1907    6.6149 H   0  0  0  0  0  0  0  0  0  0  0  0
    5.4305   -3.0059    5.6741 H   0  0  0  0  0  0  0  0  0  0  0  0
    4.3189   -2.1547    6.7559 H   0  0  0  0  0  0  0  0  0  0  0  0
    5.7018   -3.0367    7.4230 H   0  0  0  0  0  0  0  0  0  0  0  0
    2.1461   -5.8454   10.1719 H   0  0  0  0  0  0  0  0  0  0  0  0
    3.5378   -4.8152   10.5179 H   0  0  0  0  0  0  0  0  0  0  0  0
    1.0892   -4.2348   11.9365 H   0  0  0  0  0  0  0  0  0  0  0  0
    2.0136   -5.4963   12.4646 H   0  0  0  0  0  0  0  0  0  0  0  0
   -1.5096   -1.5288   11.3759 H   0  0  0  0  0  0  0  0  0  0  0  0
   -3.8527   -1.9333   10.7068 H   0  0  0  0  0  0  0  0  0  0  0  0
   -1.7816   -3.8733    4.8758 H   0  0  0  0  0  0  0  0  0  0  0  0
   -1.5016   -3.1142    2.2222 H   0  0  0  0  0  0  0  0  0  0  0  0
   -4.5998    0.2388    5.3085 H   0  0  0  0  0  0  0  0  0  0  0  0
   -4.5184   -0.2803    8.0243 H   0  0  0  0  0  0  0  0  0  0  0  0
   -4.0204    2.7592    1.5209 H   0  0  0  0  0  0  0  0  0  0  0  0
   -5.0232    4.1461    0.9849 H   0  0  0  0  0  0  0  0  0  0  0  0
   -5.7713    1.1820    0.8140 H   0  0  0  0  0  0  0  0  0  0  0  0
   -6.7794    2.5166    0.2244 H   0  0  0  0  0  0  0  0  0  0  0  0
   -6.4437    2.3489    1.9554 H   0  0  0  0  0  0  0  0  0  0  0  0
   -4.4000    3.1395   -3.3137 H   0  0  0  0  0  0  0  0  0  0  0  0
   -2.9985    4.0057   -2.6903 H   0  0  0  0  0  0  0  0  0  0  0  0
   -2.9376    2.0432   -4.8530 H   0  0  0  0  0  0  0  0  0  0  0  0
   -1.6614    2.8732   -4.2906 H   0  0  0  0  0  0  0  0  0  0  0  0
    0.0617   -2.4309   -3.0931 H   0  0  0  0  0  0  0  0  0  0  0  0
   -1.3382   -0.0542   -4.4465 H   0  0  0  0  0  0  0  0  0  0  0  0
   -3.0593    1.6620   -7.4978 H   0  0  0  0  0  0  0  0  0  0  0  0
   -1.8085    2.7647   -6.9012 H   0  0  0  0  0  0  0  0  0  0  0  0
   -3.6103    3.2725   -9.3302 H   0  0  0  0  0  0  0  0  0  0  0  0
   -2.3379    4.3582   -8.7681 H   0  0  0  0  0  0  0  0  0  0  0  0
   -3.7488    4.0540   -7.7450 H   0  0  0  0  0  0  0  0  0  0  0  0
   -0.6964    0.6818  -11.1251 H   0  0  0  0  0  0  0  0  0  0  0  0
    0.4445    1.9299  -10.6370 H   0  0  0  0  0  0  0  0  0  0  0  0
    1.1381   -0.7505  -11.5754 H   0  0  0  0  0  0  0  0  0  0  0  0
    2.2085    0.3665  -11.0814 H   0  0  0  0  0  0  0  0  0  0  0  0
    2.9825   -2.4735   -8.8423 H   0  0  0  0  0  0  0  0  0  0  0  0
    4.3904   -4.2265   -7.8482 H   0  0  0  0  0  0  0  0  0  0  0  0
    3.4648   -4.0787   -6.2691 H   0  0  0  0  0  0  0  0  0  0  0  0
  1  2  1  0  0  0  0
  2  3  1  0  0  0  0
  3  4  2  0  0  0  0
  4  5  1  0  0  0  0
  5  6  1  0  0  0  0
  6  7  2  0  0  0  0
  7  8  1  0  0  0  0
  8  9  1  0  0  0  0
  9 10  1  0  0  0  0
 10 11  2  0  0  0  0
 11 12  1  0  0  0  0
  7 13  1  0  0  0  0
 13 14  1  0  0  0  0
 14 15  1  0  0  0  0
 15 16  2  0  0  0  0
 16 17  1  0  0  0  0
 17 18  1  0  0  0  0
 18 19  2  0  0  0  0
 19 20  1  0  0  0  0
 20 21  1  0  0  0  0
 21 22  1  0  0  0  0
 22 23  2  0  0  0  0
 23 24  1  0  0  0  0
 19 25  1  0  0  0  0
 25 26  1  0  0  0  0
 26 27  1  0  0  0  0
 27 28  2  0  0  0  0
 28 29  1  0  0  0  0
 29 30  1  0  0  0  0
 30 31  2  0  0  0  0
 31 32  1  0  0  0  0
 32 33  1  0  0  0  0
 33 34  1  0  0  0  0
 31 35  1  0  0  0  0
 35 36  1  0  0  0  0
 36 37  1  0  0  0  0
 35 38  2  0  0  0  0
 27 39  1  0  0  0  0
 39 40  2  0  0  0  0
 40 41  1  0  0  0  0
 41 42  1  0  0  0  0
 42 43  1  0  0  0  0
 43 44  2  0  0  0  0
 44 45  1  0  0  0  0
 45 46  1  0  0  0  0
 46 47  2  0  0  0  0
 47 48  1  0  0  0  0
 48 49  1  0  0  0  0
 49 50  1  0  0  0  0
 50 51  2  0  0  0  0
 51 52  1  0  0  0  0
 47 53  1  0  0  0  0
 53 54  1  0  0  0  0
 54 55  1  0  0  0  0
 55 56  2  0  0  0  0
 56 57  1  0  0  0  0
 57 58  1  0  0  0  0
 58 59  2  0  0  0  0
 59 60  1  0  0  0  0
 60 61  1  0  0  0  0
 61 62  1  0  0  0  0
 59 63  1  0  0  0  0
 63 64  1  0  0  0  0
 64 65  1  0  0  0  0
 63 66  2  0  0  0  0
 55 67  1  0  0  0  0
 67 68  2  0  0  0  0
 68 69  1  0  0  0  0
 69 70  1  0  0  0  0
 70 71  1  0  0  0  0
 71 72  2  0  0  0  0
 72 73  1  0  0  0  0
 73 74  1  0  0  0  0
 74 75  2  0  0  0  0
 75 76  1  0  0  0  0
 76 77  1  0  0  0  0
 77 78  1  0  0  0  0
 75 79  1  0  0  0  0
 79 80  1  0  0  0  0
 80 81  1  0  0  0  0
 79 82  2  0  0  0  0
 71 83  1  0  0  0  0
 83 84  2  0  0  0  0
 12  1  2  0  0  0  0
 24 13  2  0  0  0  0
 29 25  2  0  0  0  0
 52 41  2  0  0  0  0
 57 53  2  0  0  0  0
 73 69  2  0  0  0  0
 11  3  1  0  0  0  0
 23 15  1  0  0  0  0
 38 28  1  0  0  0  0
 51 43  1  0  0  0  0
 66 56  1  0  0  0  0
 82 72  1  0  0  0  0
  9  5  2  0  0  0  0
 21 17  2  0  0  0  0
 49 45  2  0  0  0  0
  1 85  1  0  0  0  0
  4 86  1  0  0  0  0
  6 87  1  0  0  0  0
 10 88  1  0  0  0  0
 12 89  1  0  0  0  0
 16 90  1  0  0  0  0
 18 91  1  0  0  0  0
 22 92  1  0  0  0  0
 24 93  1  0  0  0  0
 33 94  1  0  0  0  0
 33 95  1  0  0  0  0
 34 96  1  0  0  0  0
 34 97  1  0  0  0  0
 34 98  1  0  0  0  0
 36 99  1  0  0  0  0
 36100  1  0  0  0  0
 37101  1  0  0  0  0
 37102  1  0  0  0  0
 39103  1  0  0  0  0
 40104  1  0  0  0  0
 44105  1  0  0  0  0
 46106  1  0  0  0  0
 50107  1  0  0  0  0
 52108  1  0  0  0  0
 61109  1  0  0  0  0
 61110  1  0  0  0  0
 62111  1  0  0  0  0
 62112  1  0  0  0  0
 62113  1  0  0  0  0
 64114  1  0  0  0  0
 64115  1  0  0  0  0
 65116  1  0  0  0  0
 65117  1  0  0  0  0
 67118  1  0  0  0  0
 68119  1  0  0  0  0
 77120  1  0  0  0  0
 77121  1  0  0  0  0
 78122  1  0  0  0  0
 78123  1  0  0  0  0
 78124  1  0  0  0  0
 80125  1  0  0  0  0
 80126  1  0  0  0  0
 81127  1  0  0  0  0
 81128  1  0  0  0  0
 83129  1  0  0  0  0
 84130  1  0  0  0  0
 84131  1  0  0  0  0
M  END
