
  xtb     03022213023D
 energy: -468.716888555996 gnorm: 0.000369743232 xtb: 6.4.1 (unknown)
239265  0     0  0            999 V2000
    9.1658   -8.5409    5.7087 C   0  0  0  0  0  0  0  0  0  0  0  0
    9.7197   -7.3391    5.4472 C   0  0  0  0  0  0  0  0  0  0  0  0
    8.7628   -6.3668    5.0333 C   0  0  0  0  0  0  0  0  0  0  0  0
    8.9812   -5.0297    4.6641 C   0  0  0  0  0  0  0  0  0  0  0  0
   10.3171   -4.4530    4.6455 C   0  0  0  0  0  0  0  0  0  0  0  0
   11.6001   -5.1632    3.7108 S   0  0  0  0  0  0  0  0  0  0  0  0
   12.7323   -3.9460    4.1922 C   0  0  0  0  0  0  0  0  0  0  0  0
   14.1246   -3.9307    3.6653 C   0  0  0  0  0  0  0  0  0  0  0  0
   14.1971   -3.1736    2.3370 C   0  0  0  0  0  0  0  0  0  0  0  0
   12.1342   -3.0466    5.0231 C   0  0  0  0  0  0  0  0  0  0  0  0
   12.9412   -1.6981    5.7114 Cl  0  0  0  0  0  0  0  0  0  0  0  0
   10.7666   -3.3313    5.2844 C   0  0  0  0  0  0  0  0  0  0  0  0
    9.8218   -2.3915    6.3620 Cl  0  0  0  0  0  0  0  0  0  0  0  0
    7.8647   -4.2794    4.3158 C   0  0  0  0  0  0  0  0  0  0  0  0
    6.5547   -4.8152    4.3310 C   0  0  0  0  0  0  0  0  0  0  0  0
    6.3392   -6.1604    4.6618 C   0  0  0  0  0  0  0  0  0  0  0  0
    5.0029   -6.7315    4.5636 C   0  0  0  0  0  0  0  0  0  0  0  0
    4.1782   -6.7466    3.0330 S   0  0  0  0  0  0  0  0  0  0  0  0
    2.7674   -7.4765    3.7139 C   0  0  0  0  0  0  0  0  0  0  0  0
    1.5818   -7.7962    2.8724 C   0  0  0  0  0  0  0  0  0  0  0  0
    1.6628   -9.2202    2.3190 C   0  0  0  0  0  0  0  0  0  0  0  0
    2.9501   -7.7127    5.0437 C   0  0  0  0  0  0  0  0  0  0  0  0
    4.2183   -7.2915    5.5294 C   0  0  0  0  0  0  0  0  0  0  0  0
    4.6733   -7.4159    7.1767 Cl  0  0  0  0  0  0  0  0  0  0  0  0
    1.7614   -8.4209    6.0568 Cl  0  0  0  0  0  0  0  0  0  0  0  0
    7.4528   -6.9050    5.0211 C   0  0  0  0  0  0  0  0  0  0  0  0
    7.4522   -8.5828    5.4796 S   0  0  0  0  0  0  0  0  0  0  0  0
    5.5800   -3.8455    3.9930 C   0  0  0  0  0  0  0  0  0  0  0  0
    6.1104   -2.6335    3.6731 C   0  0  0  0  0  0  0  0  0  0  0  0
    7.8583   -2.6215    3.7771 S   0  0  0  0  0  0  0  0  0  0  0  0
    5.3726   -1.4725    3.2842 C   0  0  0  0  0  0  0  0  0  0  0  0
    5.7647   -0.4376    2.4924 C   0  0  0  0  0  0  0  0  0  0  0  0
    4.7295    0.5003    2.2402 C   0  0  0  0  0  0  0  0  0  0  0  0
    4.7730    1.6318    1.4075 C   0  0  0  0  0  0  0  0  0  0  0  0
    6.0022    2.0313    0.7453 C   0  0  0  0  0  0  0  0  0  0  0  0
    6.0595    2.2883   -0.9731 S   0  0  0  0  0  0  0  0  0  0  0  0
    7.7401    2.6971   -0.9323 C   0  0  0  0  0  0  0  0  0  0  0  0
    8.4601    3.1111   -2.1676 C   0  0  0  0  0  0  0  0  0  0  0  0
    8.2216    4.5940   -2.4626 C   0  0  0  0  0  0  0  0  0  0  0  0
    8.2117    2.6430    0.3455 C   0  0  0  0  0  0  0  0  0  0  0  0
    9.8325    2.9971    0.7840 Cl  0  0  0  0  0  0  0  0  0  0  0  0
    7.2320    2.2574    1.2993 C   0  0  0  0  0  0  0  0  0  0  0  0
    7.5637    2.1685    2.9818 Cl  0  0  0  0  0  0  0  0  0  0  0  0
    3.5814    2.3196    1.2213 C   0  0  0  0  0  0  0  0  0  0  0  0
    2.3831    1.9740    1.8919 C   0  0  0  0  0  0  0  0  0  0  0  0
    2.3583    0.8955    2.7959 C   0  0  0  0  0  0  0  0  0  0  0  0
    1.1627    0.5837    3.5547 C   0  0  0  0  0  0  0  0  0  0  0  0
    0.6036   -1.0528    3.7362 S   0  0  0  0  0  0  0  0  0  0  0  0
   -0.7993   -0.5702    4.6178 C   0  0  0  0  0  0  0  0  0  0  0  0
   -1.8453   -1.5625    4.9881 C   0  0  0  0  0  0  0  0  0  0  0  0
   -2.8368   -1.7369    3.8348 C   0  0  0  0  0  0  0  0  0  0  0  0
   -0.8080    0.7830    4.7867 C   0  0  0  0  0  0  0  0  0  0  0  0
    0.3064    1.4386    4.2009 C   0  0  0  0  0  0  0  0  0  0  0  0
    0.5690    3.1229    4.4063 Cl  0  0  0  0  0  0  0  0  0  0  0  0
   -2.0411    1.6337    5.6211 Cl  0  0  0  0  0  0  0  0  0  0  0  0
    3.5250    0.1463    2.8951 C   0  0  0  0  0  0  0  0  0  0  0  0
    3.7061   -1.3234    3.8042 S   0  0  0  0  0  0  0  0  0  0  0  0
    1.2998    2.7814    1.4726 C   0  0  0  0  0  0  0  0  0  0  0  0
    1.6476    3.7337    0.5609 C   0  0  0  0  0  0  0  0  0  0  0  0
    3.3459    3.6768    0.1543 S   0  0  0  0  0  0  0  0  0  0  0  0
    0.7128    4.6184   -0.0647 C   0  0  0  0  0  0  0  0  0  0  0  0
   -0.4697    5.0214    0.4821 C   0  0  0  0  0  0  0  0  0  0  0  0
   -1.3317    5.6537   -0.4443 C   0  0  0  0  0  0  0  0  0  0  0  0
   -2.6740    6.0209   -0.2490 C   0  0  0  0  0  0  0  0  0  0  0  0
   -3.3534    5.7527    1.0118 C   0  0  0  0  0  0  0  0  0  0  0  0
   -4.1791    6.9944    1.8991 S   0  0  0  0  0  0  0  0  0  0  0  0
   -4.7050    5.8809    3.1175 C   0  0  0  0  0  0  0  0  0  0  0  0
   -5.4725    6.3469    4.3049 C   0  0  0  0  0  0  0  0  0  0  0  0
   -4.5556    7.0474    5.3101 C   0  0  0  0  0  0  0  0  0  0  0  0
   -4.2620    4.6240    2.8334 C   0  0  0  0  0  0  0  0  0  0  0  0
   -4.5879    3.2459    3.8012 Cl  0  0  0  0  0  0  0  0  0  0  0  0
   -3.4984    4.5461    1.6379 C   0  0  0  0  0  0  0  0  0  0  0  0
   -2.8908    3.0601    1.0269 Cl  0  0  0  0  0  0  0  0  0  0  0  0
   -3.3728    6.4630   -1.3592 C   0  0  0  0  0  0  0  0  0  0  0  0
   -2.7971    6.5365   -2.6509 C   0  0  0  0  0  0  0  0  0  0  0  0
   -1.4499    6.1852   -2.8439 C   0  0  0  0  0  0  0  0  0  0  0  0
   -0.9167    6.0839   -4.1961 C   0  0  0  0  0  0  0  0  0  0  0  0
   -0.8500    7.4497   -5.2664 S   0  0  0  0  0  0  0  0  0  0  0  0
   -0.2690    6.4871   -6.5832 C   0  0  0  0  0  0  0  0  0  0  0  0
   -0.0442    7.0766   -7.9313 C   0  0  0  0  0  0  0  0  0  0  0  0
   -1.3440    7.0843   -8.7402 C   0  0  0  0  0  0  0  0  0  0  0  0
   -0.1484    5.1849   -6.2008 C   0  0  0  0  0  0  0  0  0  0  0  0
   -0.5130    4.9520   -4.8474 C   0  0  0  0  0  0  0  0  0  0  0  0
   -0.5274    3.3847   -4.1514 Cl  0  0  0  0  0  0  0  0  0  0  0  0
    0.3812    3.9284   -7.2396 Cl  0  0  0  0  0  0  0  0  0  0  0  0
   -0.7433    5.7528   -1.7302 C   0  0  0  0  0  0  0  0  0  0  0  0
    0.8765    5.1137   -1.7351 S   0  0  0  0  0  0  0  0  0  0  0  0
   -3.7836    6.6317   -3.6645 C   0  0  0  0  0  0  0  0  0  0  0  0
   -5.0619    6.5454   -3.1887 C   0  0  0  0  0  0  0  0  0  0  0  0
   -5.1085    6.6298   -1.4286 S   0  0  0  0  0  0  0  0  0  0  0  0
   -6.1142    5.8622   -3.8720 C   0  0  0  0  0  0  0  0  0  0  0  0
   -6.9795    5.0195   -3.2273 C   0  0  0  0  0  0  0  0  0  0  0  0
   -7.2452    3.8333   -3.9494 C   0  0  0  0  0  0  0  0  0  0  0  0
   -7.6832    2.6127   -3.4045 C   0  0  0  0  0  0  0  0  0  0  0  0
   -8.1255    2.4931   -2.0229 C   0  0  0  0  0  0  0  0  0  0  0  0
   -7.1483    3.0812   -0.7059 S   0  0  0  0  0  0  0  0  0  0  0  0
   -8.2338    2.4527    0.4865 C   0  0  0  0  0  0  0  0  0  0  0  0
   -7.9712    2.6672    1.9359 C   0  0  0  0  0  0  0  0  0  0  0  0
   -8.0476    4.1500    2.3022 C   0  0  0  0  0  0  0  0  0  0  0  0
   -9.2831    1.8250   -0.1148 C   0  0  0  0  0  0  0  0  0  0  0  0
  -10.5751    1.0820    0.7351 Cl  0  0  0  0  0  0  0  0  0  0  0  0
   -9.2151    1.8300   -1.5353 C   0  0  0  0  0  0  0  0  0  0  0  0
  -10.4186    1.1192   -2.5255 Cl  0  0  0  0  0  0  0  0  0  0  0  0
   -7.4240    1.4699   -4.1484 C   0  0  0  0  0  0  0  0  0  0  0  0
   -6.8186    1.4991   -5.4300 C   0  0  0  0  0  0  0  0  0  0  0  0
   -6.4898    2.7335   -6.0204 C   0  0  0  0  0  0  0  0  0  0  0  0
   -5.7645    2.7822   -7.2870 C   0  0  0  0  0  0  0  0  0  0  0  0
   -6.5419    2.4203   -8.7953 S   0  0  0  0  0  0  0  0  0  0  0  0
   -5.0880    2.6888   -9.6962 C   0  0  0  0  0  0  0  0  0  0  0  0
   -5.0668    2.6020  -11.1831 C   0  0  0  0  0  0  0  0  0  0  0  0
   -5.3355    3.9714  -11.8121 C   0  0  0  0  0  0  0  0  0  0  0  0
   -4.0702    3.0355   -8.8592 C   0  0  0  0  0  0  0  0  0  0  0  0
   -4.4484    3.0848   -7.4899 C   0  0  0  0  0  0  0  0  0  0  0  0
   -3.3303    3.4238   -6.2313 Cl  0  0  0  0  0  0  0  0  0  0  0  0
   -2.4677    3.3522   -9.3819 Cl  0  0  0  0  0  0  0  0  0  0  0  0
   -6.6681    3.8650   -5.2455 C   0  0  0  0  0  0  0  0  0  0  0  0
   -5.9041    5.4051   -5.5591 S   0  0  0  0  0  0  0  0  0  0  0  0
   -6.2881    0.2413   -5.7998 C   0  0  0  0  0  0  0  0  0  0  0  0
   -6.3931   -0.6971   -4.8063 C   0  0  0  0  0  0  0  0  0  0  0  0
   -7.4085   -0.1404   -3.4819 S   0  0  0  0  0  0  0  0  0  0  0  0
   -5.5447   -1.8165   -4.6169 C   0  0  0  0  0  0  0  0  0  0  0  0
   -5.5197   -2.6637   -3.1003 S   0  0  0  0  0  0  0  0  0  0  0  0
   -3.9368   -3.3276   -3.3715 C   0  0  0  0  0  0  0  0  0  0  0  0
   -3.4995   -2.9858   -4.6546 C   0  0  0  0  0  0  0  0  0  0  0  0
   -4.3980   -2.1242   -5.3527 C   0  0  0  0  0  0  0  0  0  0  0  0
   -4.0648   -1.5980   -6.5533 N   0  0  0  0  0  0  0  0  0  0  0  0
   -2.9054   -1.9479   -7.0419 C   0  0  0  0  0  0  0  0  0  0  0  0
   -2.4691   -1.4311   -8.1905 O   0  0  0  0  0  0  0  0  0  0  0  0
   -3.2851   -0.4420   -8.8107 C   0  0  0  0  0  0  0  0  0  0  0  0
   -4.4866   -1.0427   -9.5259 C   0  0  0  0  0  0  0  0  0  0  0  0
   -2.0248   -2.8778   -6.3720 C   0  0  0  0  0  0  0  0  0  0  0  0
   -0.7295   -3.2581   -7.0169 C   0  0  0  0  0  0  0  0  0  0  0  0
   -0.1925   -4.4842   -6.4650 N   0  0  0  0  0  0  0  0  0  0  0  0
   -2.3203   -3.3571   -5.1993 N   0  0  0  0  0  0  0  0  0  0  0  0
   -3.1563   -3.8854   -2.3340 C   0  0  0  0  0  0  0  0  0  0  0  0
   -3.6133   -4.1208   -1.0809 C   0  0  0  0  0  0  0  0  0  0  0  0
   -2.7948   -4.3845    0.0540 C   0  0  0  0  0  0  0  0  0  0  0  0
   -1.4733   -4.0859    0.2466 C   0  0  0  0  0  0  0  0  0  0  0  0
   -1.0189   -4.3270    1.5653 C   0  0  0  0  0  0  0  0  0  0  0  0
    0.2510   -4.0715    2.1150 C   0  0  0  0  0  0  0  0  0  0  0  0
    1.2834   -3.3716    1.3684 C   0  0  0  0  0  0  0  0  0  0  0  0
    2.9025   -3.9987    1.2824 S   0  0  0  0  0  0  0  0  0  0  0  0
    3.4646   -2.6569    0.3529 C   0  0  0  0  0  0  0  0  0  0  0  0
    4.8688   -2.5578   -0.1364 C   0  0  0  0  0  0  0  0  0  0  0  0
    5.6883   -3.8011    0.1782 C   0  0  0  0  0  0  0  0  0  0  0  0
    2.4483   -1.7715    0.1428 C   0  0  0  0  0  0  0  0  0  0  0  0
    2.6469   -0.2914   -0.7088 Cl  0  0  0  0  0  0  0  0  0  0  0  0
    1.2090   -2.1766    0.7023 C   0  0  0  0  0  0  0  0  0  0  0  0
   -0.1971   -1.1997    0.5770 Cl  0  0  0  0  0  0  0  0  0  0  0  0
    0.4600   -4.4841    3.4273 C   0  0  0  0  0  0  0  0  0  0  0  0
   -0.5434   -5.0898    4.2192 C   0  0  0  0  0  0  0  0  0  0  0  0
   -1.8240   -5.3005    3.6856 C   0  0  0  0  0  0  0  0  0  0  0  0
   -2.8815   -5.9150    4.4734 C   0  0  0  0  0  0  0  0  0  0  0  0
   -4.4135   -5.1285    4.7104 S   0  0  0  0  0  0  0  0  0  0  0  0
   -5.0295   -6.4377    5.6584 C   0  0  0  0  0  0  0  0  0  0  0  0
   -6.3863   -6.3754    6.2672 C   0  0  0  0  0  0  0  0  0  0  0  0
   -6.3562   -5.6136    7.5944 C   0  0  0  0  0  0  0  0  0  0  0  0
   -4.0895   -7.4164    5.7810 C   0  0  0  0  0  0  0  0  0  0  0  0
   -2.8723   -7.1250    5.1078 C   0  0  0  0  0  0  0  0  0  0  0  0
   -1.5610   -8.2302    5.0591 Cl  0  0  0  0  0  0  0  0  0  0  0  0
   -4.3338   -8.8777    6.6492 Cl  0  0  0  0  0  0  0  0  0  0  0  0
   -2.0350   -4.8964    2.3753 C   0  0  0  0  0  0  0  0  0  0  0  0
   -3.5338   -5.0353    1.5063 S   0  0  0  0  0  0  0  0  0  0  0  0
   -0.0886   -5.3488    5.5458 C   0  0  0  0  0  0  0  0  0  0  0  0
    1.1902   -4.9729    5.7428 C   0  0  0  0  0  0  0  0  0  0  0  0
    1.9237   -4.2706    4.3441 S   0  0  0  0  0  0  0  0  0  0  0  0
    9.6601   -9.4348    6.0354 H   0  0  0  0  0  0  0  0  0  0  0  0
   10.7698   -7.1339    5.5440 H   0  0  0  0  0  0  0  0  0  0  0  0
   14.4691   -4.9559    3.5194 H   0  0  0  0  0  0  0  0  0  0  0  0
   14.7707   -3.4438    4.3983 H   0  0  0  0  0  0  0  0  0  0  0  0
   15.2190   -3.1641    1.9681 H   0  0  0  0  0  0  0  0  0  0  0  0
   13.8648   -2.1473    2.4707 H   0  0  0  0  0  0  0  0  0  0  0  0
   13.5613   -3.6512    1.5953 H   0  0  0  0  0  0  0  0  0  0  0  0
    0.6815   -7.6946    3.4818 H   0  0  0  0  0  0  0  0  0  0  0  0
    1.5250   -7.0829    2.0479 H   0  0  0  0  0  0  0  0  0  0  0  0
    0.7861   -9.4339    1.7135 H   0  0  0  0  0  0  0  0  0  0  0  0
    2.5515   -9.3371    1.7035 H   0  0  0  0  0  0  0  0  0  0  0  0
    1.7066   -9.9384    3.1337 H   0  0  0  0  0  0  0  0  0  0  0  0
    4.5236   -4.0386    3.9818 H   0  0  0  0  0  0  0  0  0  0  0  0
    6.7534   -0.3675    2.0759 H   0  0  0  0  0  0  0  0  0  0  0  0
    8.1087    2.5131   -3.0102 H   0  0  0  0  0  0  0  0  0  0  0  0
    9.5276    2.9309   -2.0294 H   0  0  0  0  0  0  0  0  0  0  0  0
    7.1596    4.7847   -2.5979 H   0  0  0  0  0  0  0  0  0  0  0  0
    8.7478    4.8843   -3.3680 H   0  0  0  0  0  0  0  0  0  0  0  0
    8.5822    5.2046   -1.6387 H   0  0  0  0  0  0  0  0  0  0  0  0
   -2.3733   -1.2123    5.8769 H   0  0  0  0  0  0  0  0  0  0  0  0
   -1.3751   -2.5214    5.2126 H   0  0  0  0  0  0  0  0  0  0  0  0
   -3.5808   -2.4880    4.0872 H   0  0  0  0  0  0  0  0  0  0  0  0
   -2.3126   -2.0520    2.9355 H   0  0  0  0  0  0  0  0  0  0  0  0
   -3.3427   -0.7971    3.6285 H   0  0  0  0  0  0  0  0  0  0  0  0
    0.2829    2.6179    1.7753 H   0  0  0  0  0  0  0  0  0  0  0  0
   -0.7228    4.8552    1.5126 H   0  0  0  0  0  0  0  0  0  0  0  0
   -6.2545    7.0379    3.9846 H   0  0  0  0  0  0  0  0  0  0  0  0
   -5.9407    5.4818    4.7775 H   0  0  0  0  0  0  0  0  0  0  0  0
   -3.7800    6.3662    5.6514 H   0  0  0  0  0  0  0  0  0  0  0  0
   -5.1294    7.3803    6.1706 H   0  0  0  0  0  0  0  0  0  0  0  0
   -4.0819    7.9112    4.8498 H   0  0  0  0  0  0  0  0  0  0  0  0
    0.7077    6.4820   -8.4536 H   0  0  0  0  0  0  0  0  0  0  0  0
    0.3262    8.0975   -7.8254 H   0  0  0  0  0  0  0  0  0  0  0  0
   -1.7232    6.0720   -8.8514 H   0  0  0  0  0  0  0  0  0  0  0  0
   -1.1669    7.5008   -9.7281 H   0  0  0  0  0  0  0  0  0  0  0  0
   -2.0988    7.6842   -8.2372 H   0  0  0  0  0  0  0  0  0  0  0  0
   -3.5544    6.5861   -4.7141 H   0  0  0  0  0  0  0  0  0  0  0  0
   -7.2585    5.1655   -2.2004 H   0  0  0  0  0  0  0  0  0  0  0  0
   -8.7076    2.1020    2.5090 H   0  0  0  0  0  0  0  0  0  0  0  0
   -6.9761    2.2909    2.1841 H   0  0  0  0  0  0  0  0  0  0  0  0
   -7.8561    4.2794    3.3637 H   0  0  0  0  0  0  0  0  0  0  0  0
   -7.3051    4.7157    1.7432 H   0  0  0  0  0  0  0  0  0  0  0  0
   -9.0337    4.5471    2.0744 H   0  0  0  0  0  0  0  0  0  0  0  0
   -5.8273    1.8944  -11.5170 H   0  0  0  0  0  0  0  0  0  0  0  0
   -4.0864    2.2423  -11.5023 H   0  0  0  0  0  0  0  0  0  0  0  0
   -4.5767    4.6840  -11.4998 H   0  0  0  0  0  0  0  0  0  0  0  0
   -6.3097    4.3432  -11.5043 H   0  0  0  0  0  0  0  0  0  0  0  0
   -5.3175    3.8940  -12.8958 H   0  0  0  0  0  0  0  0  0  0  0  0
   -5.7154    0.0695   -6.6913 H   0  0  0  0  0  0  0  0  0  0  0  0
   -2.6195    0.0570   -9.5186 H   0  0  0  0  0  0  0  0  0  0  0  0
   -3.6136    0.2741   -8.0497 H   0  0  0  0  0  0  0  0  0  0  0  0
   -4.1575   -1.7669  -10.2669 H   0  0  0  0  0  0  0  0  0  0  0  0
   -5.0445   -0.2538  -10.0216 H   0  0  0  0  0  0  0  0  0  0  0  0
   -5.1358   -1.5399   -8.8102 H   0  0  0  0  0  0  0  0  0  0  0  0
   -0.0576   -2.3864   -6.9051 H   0  0  0  0  0  0  0  0  0  0  0  0
   -0.8947   -3.3904   -8.0924 H   0  0  0  0  0  0  0  0  0  0  0  0
    0.8095   -4.5363   -6.6027 H   0  0  0  0  0  0  0  0  0  0  0  0
   -0.3933   -4.5221   -5.4716 H   0  0  0  0  0  0  0  0  0  0  0  0
   -2.1179   -4.0493   -2.5854 H   0  0  0  0  0  0  0  0  0  0  0  0
   -4.6773   -4.0495   -0.8916 H   0  0  0  0  0  0  0  0  0  0  0  0
   -0.8502   -3.6765   -0.5261 H   0  0  0  0  0  0  0  0  0  0  0  0
    4.8464   -2.3848   -1.2168 H   0  0  0  0  0  0  0  0  0  0  0  0
    5.3362   -1.6778    0.3165 H   0  0  0  0  0  0  0  0  0  0  0  0
    6.7084   -3.6775   -0.1751 H   0  0  0  0  0  0  0  0  0  0  0  0
    5.2560   -4.6749   -0.3031 H   0  0  0  0  0  0  0  0  0  0  0  0
    5.7109   -3.9821    1.2501 H   0  0  0  0  0  0  0  0  0  0  0  0
   -7.0698   -5.8768    5.5778 H   0  0  0  0  0  0  0  0  0  0  0  0
   -6.7407   -7.3936    6.4373 H   0  0  0  0  0  0  0  0  0  0  0  0
   -6.0045   -4.5967    7.4373 H   0  0  0  0  0  0  0  0  0  0  0  0
   -7.3527   -5.5761    8.0259 H   0  0  0  0  0  0  0  0  0  0  0  0
   -5.6904   -6.1076    8.2976 H   0  0  0  0  0  0  0  0  0  0  0  0
   -0.7052   -5.7885    6.3076 H   0  0  0  0  0  0  0  0  0  0  0  0
    1.7745   -5.0574    6.6379 H   0  0  0  0  0  0  0  0  0  0  0  0
  1  2  2  0  0  0  0
  2  3  1  0  0  0  0
  3  4  2  0  0  0  0
  4  5  1  0  0  0  0
  5  6  1  0  0  0  0
  6  7  1  0  0  0  0
  7  8  1  0  0  0  0
  8  9  1  0  0  0  0
  7 10  2  0  0  0  0
 10 11  1  0  0  0  0
 10 12  1  0  0  0  0
 12 13  1  0  0  0  0
  4 14  1  0  0  0  0
 14 15  2  0  0  0  0
 15 16  1  0  0  0  0
 16 17  1  0  0  0  0
 17 18  1  0  0  0  0
 18 19  1  0  0  0  0
 19 20  1  0  0  0  0
 20 21  1  0  0  0  0
 19 22  2  0  0  0  0
 22 23  1  0  0  0  0
 23 24  1  0  0  0  0
 22 25  1  0  0  0  0
 16 26  2  0  0  0  0
 26 27  1  0  0  0  0
 15 28  1  0  0  0  0
 28 29  2  0  0  0  0
 29 30  1  0  0  0  0
 29 31  1  0  0  0  0
 31 32  2  0  0  0  0
 32 33  1  0  0  0  0
 33 34  2  0  0  0  0
 34 35  1  0  0  0  0
 35 36  1  0  0  0  0
 36 37  1  0  0  0  0
 37 38  1  0  0  0  0
 38 39  1  0  0  0  0
 37 40  2  0  0  0  0
 40 41  1  0  0  0  0
 40 42  1  0  0  0  0
 42 43  1  0  0  0  0
 34 44  1  0  0  0  0
 44 45  2  0  0  0  0
 45 46  1  0  0  0  0
 46 47  1  0  0  0  0
 47 48  1  0  0  0  0
 48 49  1  0  0  0  0
 49 50  1  0  0  0  0
 50 51  1  0  0  0  0
 49 52  2  0  0  0  0
 52 53  1  0  0  0  0
 53 54  1  0  0  0  0
 52 55  1  0  0  0  0
 46 56  2  0  0  0  0
 56 57  1  0  0  0  0
 45 58  1  0  0  0  0
 58 59  2  0  0  0  0
 59 60  1  0  0  0  0
 59 61  1  0  0  0  0
 61 62  2  0  0  0  0
 62 63  1  0  0  0  0
 63 64  2  0  0  0  0
 64 65  1  0  0  0  0
 65 66  1  0  0  0  0
 66 67  1  0  0  0  0
 67 68  1  0  0  0  0
 68 69  1  0  0  0  0
 67 70  2  0  0  0  0
 70 71  1  0  0  0  0
 70 72  1  0  0  0  0
 72 73  1  0  0  0  0
 64 74  1  0  0  0  0
 74 75  2  0  0  0  0
 75 76  1  0  0  0  0
 76 77  1  0  0  0  0
 77 78  1  0  0  0  0
 78 79  1  0  0  0  0
 79 80  1  0  0  0  0
 80 81  1  0  0  0  0
 79 82  2  0  0  0  0
 82 83  1  0  0  0  0
 83 84  1  0  0  0  0
 82 85  1  0  0  0  0
 76 86  2  0  0  0  0
 86 87  1  0  0  0  0
 75 88  1  0  0  0  0
 88 89  2  0  0  0  0
 89 90  1  0  0  0  0
 89 91  1  0  0  0  0
 91 92  2  0  0  0  0
 92 93  1  0  0  0  0
 93 94  2  0  0  0  0
 94 95  1  0  0  0  0
 95 96  1  0  0  0  0
 96 97  1  0  0  0  0
 97 98  1  0  0  0  0
 98 99  1  0  0  0  0
 97100  2  0  0  0  0
100101  1  0  0  0  0
100102  1  0  0  0  0
102103  1  0  0  0  0
 94104  1  0  0  0  0
104105  2  0  0  0  0
105106  1  0  0  0  0
106107  1  0  0  0  0
107108  1  0  0  0  0
108109  1  0  0  0  0
109110  1  0  0  0  0
110111  1  0  0  0  0
109112  2  0  0  0  0
112113  1  0  0  0  0
113114  1  0  0  0  0
112115  1  0  0  0  0
106116  2  0  0  0  0
116117  1  0  0  0  0
105118  1  0  0  0  0
118119  2  0  0  0  0
119120  1  0  0  0  0
119121  1  0  0  0  0
121122  1  0  0  0  0
122123  1  0  0  0  0
123124  2  0  0  0  0
124125  1  0  0  0  0
125126  1  0  0  0  0
126127  2  0  0  0  0
127128  1  0  0  0  0
128129  1  0  0  0  0
129130  1  0  0  0  0
127131  1  0  0  0  0
131132  1  0  0  0  0
132133  1  0  0  0  0
131134  2  0  0  0  0
123135  1  0  0  0  0
135136  2  0  0  0  0
136137  1  0  0  0  0
137138  2  0  0  0  0
138139  1  0  0  0  0
139140  2  0  0  0  0
140141  1  0  0  0  0
141142  1  0  0  0  0
142143  1  0  0  0  0
143144  1  0  0  0  0
144145  1  0  0  0  0
143146  2  0  0  0  0
146147  1  0  0  0  0
146148  1  0  0  0  0
148149  1  0  0  0  0
140150  1  0  0  0  0
150151  2  0  0  0  0
151152  1  0  0  0  0
152153  1  0  0  0  0
153154  1  0  0  0  0
154155  1  0  0  0  0
155156  1  0  0  0  0
156157  1  0  0  0  0
155158  2  0  0  0  0
158159  1  0  0  0  0
159160  1  0  0  0  0
158161  1  0  0  0  0
152162  2  0  0  0  0
162163  1  0  0  0  0
151164  1  0  0  0  0
164165  2  0  0  0  0
165166  1  0  0  0  0
 27  1  1  0  0  0  0
 57 31  1  0  0  0  0
 87 61  1  0  0  0  0
117 91  1  0  0  0  0
125121  2  0  0  0  0
163137  1  0  0  0  0
 26  3  1  0  0  0  0
 56 33  1  0  0  0  0
 86 63  1  0  0  0  0
116 93  1  0  0  0  0
134124  1  0  0  0  0
162139  1  0  0  0  0
 12  5  2  0  0  0  0
 30 14  1  0  0  0  0
 42 35  2  0  0  0  0
 60 44  1  0  0  0  0
 72 65  2  0  0  0  0
 90 74  1  0  0  0  0
102 95  2  0  0  0  0
120104  1  0  0  0  0
148141  2  0  0  0  0
166150  1  0  0  0  0
 23 17  2  0  0  0  0
 53 47  2  0  0  0  0
 83 77  2  0  0  0  0
113107  2  0  0  0  0
159153  2  0  0  0  0
  1167  1  0  0  0  0
  2168  1  0  0  0  0
  8169  1  0  0  0  0
  8170  1  0  0  0  0
  9171  1  0  0  0  0
  9172  1  0  0  0  0
  9173  1  0  0  0  0
 20174  1  0  0  0  0
 20175  1  0  0  0  0
 21176  1  0  0  0  0
 21177  1  0  0  0  0
 21178  1  0  0  0  0
 28179  1  0  0  0  0
 32180  1  0  0  0  0
 38181  1  0  0  0  0
 38182  1  0  0  0  0
 39183  1  0  0  0  0
 39184  1  0  0  0  0
 39185  1  0  0  0  0
 50186  1  0  0  0  0
 50187  1  0  0  0  0
 51188  1  0  0  0  0
 51189  1  0  0  0  0
 51190  1  0  0  0  0
 58191  1  0  0  0  0
 62192  1  0  0  0  0
 68193  1  0  0  0  0
 68194  1  0  0  0  0
 69195  1  0  0  0  0
 69196  1  0  0  0  0
 69197  1  0  0  0  0
 80198  1  0  0  0  0
 80199  1  0  0  0  0
 81200  1  0  0  0  0
 81201  1  0  0  0  0
 81202  1  0  0  0  0
 88203  1  0  0  0  0
 92204  1  0  0  0  0
 98205  1  0  0  0  0
 98206  1  0  0  0  0
 99207  1  0  0  0  0
 99208  1  0  0  0  0
 99209  1  0  0  0  0
110210  1  0  0  0  0
110211  1  0  0  0  0
111212  1  0  0  0  0
111213  1  0  0  0  0
111214  1  0  0  0  0
118215  1  0  0  0  0
129216  1  0  0  0  0
129217  1  0  0  0  0
130218  1  0  0  0  0
130219  1  0  0  0  0
130220  1  0  0  0  0
132221  1  0  0  0  0
132222  1  0  0  0  0
133223  1  0  0  0  0
133224  1  0  0  0  0
135225  1  0  0  0  0
136226  1  0  0  0  0
138227  1  0  0  0  0
144228  1  0  0  0  0
144229  1  0  0  0  0
145230  1  0  0  0  0
145231  1  0  0  0  0
145232  1  0  0  0  0
156233  1  0  0  0  0
156234  1  0  0  0  0
157235  1  0  0  0  0
157236  1  0  0  0  0
157237  1  0  0  0  0
164238  1  0  0  0  0
165239  1  0  0  0  0
M  END
