224

C          1.38940       -7.50620        9.72130
C          1.72320       -6.32570        9.16080
C          1.16260       -6.15410        7.86220
C          1.31620       -5.07290        6.98290
C          2.15060       -3.91950        7.28720
S          3.83110       -4.10940        7.69680
C          4.09910       -2.39900        7.73890
C          5.45630       -1.83600        7.97760
C          6.30370       -1.91850        6.70620
C          2.94420       -1.73530        7.45450
Cl         2.80540       -0.02780        7.39620
C          1.83780       -2.59120        7.20260
Cl         0.26420       -1.97960        6.90260
C          0.67640       -5.16790        5.75320
C         -0.10530       -6.28250        5.36260
C         -0.27760       -7.35350        6.25440
C         -1.06920       -8.51730        5.88960
S         -0.73610       -9.40660        4.43230
C         -2.00670      -10.54140        4.73900
C         -2.31620      -11.62520        3.76640
C         -3.03060      -11.06650        2.53380
C         -2.64600      -10.23120        5.90150
C         -2.11390       -9.08910        6.56010
Cl        -2.79470       -8.46230        8.00200
Cl        -3.96950      -11.12010        6.53610
C          0.36490       -7.26180        7.48520
S          0.36730       -8.48210        8.72630
C         -0.62590       -6.12910        4.04990
C         -0.24890       -4.96500        3.45310
S          0.77840       -3.98870        4.48470
C         -0.55590       -4.44100        2.16300
C         -0.27030       -3.17120        1.76400
C         -0.61150       -2.88930        0.42120
C         -0.48570       -1.66080       -0.26510
C         -0.01640       -0.50560        0.49050
S          1.39170       -0.59750        1.52000
C          0.97820        0.85360        2.38660
C          1.72290        1.10680        3.65550
C          1.56420        2.48980        4.26920
C         -0.10780        1.43590        1.80760
Cl        -0.84250        2.91900        2.27510
C         -0.66940        0.66690        0.74450
Cl        -2.13100        1.13030        0.00210
C         -0.92340       -1.64180       -1.58450
C         -1.50850       -2.77790       -2.20830
C         -1.71350       -3.97090       -1.48970
C         -2.48630       -5.07300       -2.03300
S         -1.95660       -6.72380       -1.88850
C         -3.42120       -7.34030       -2.57630
C         -3.64190       -8.80300       -2.75020
C         -3.12340       -9.30110       -4.10080
C         -4.25080       -6.31340       -2.91530
C         -3.73110       -5.02870       -2.60230
Cl        -4.64310       -3.59170       -2.82990
Cl        -5.79330       -6.53230       -3.63350
C         -1.21220       -4.01210       -0.19610
S         -1.31740       -5.37250        0.89490
C         -1.82600       -2.53750       -3.56180
C         -1.55990       -1.26320       -3.98310
S         -0.84320       -0.30530       -2.69780
C         -1.81350       -0.80640       -5.31180
S         -2.18190        0.82690       -5.77840
C         -2.45290        0.42450       -7.44330
C         -2.22600       -0.94330       -7.62550
C         -1.88190       -1.63790       -6.43000
N         -1.60140       -2.96280       -6.45590
C         -1.66630       -3.55000       -7.61970
O         -1.35820       -4.84500       -7.74220
C         -0.97730       -5.53910       -6.55930
C         -2.19150       -6.02800       -5.78330
C         -2.03330       -2.85440       -8.83150
C         -2.14910       -3.60410      -10.13170
N         -3.18280       -4.62590      -10.12120
N         -2.30640       -1.58330       -8.81340
C         -2.74970        1.26970       -8.55130
C         -3.03060        2.58550       -8.64040
C         -3.22910        3.51340       -7.55740
C         -2.65150        4.73820       -7.41680
C         -2.90280        5.34330       -6.15670
C         -2.22060        6.42330       -5.56450
C         -1.38100        7.28840       -6.36940
S          0.23510        7.73090       -5.90560
C          0.46730        8.68390       -7.33120
C          1.73040        9.43960       -7.55350
C          1.69790       10.78220       -6.81920
C         -0.65560        8.66520       -8.10420
Cl        -0.80980        9.51050       -9.59020
C         -1.70140        7.86950       -7.56800
Cl        -3.23430        7.73380       -8.32740
C         -2.30950        6.52870       -4.18050
C         -3.17960        5.73100       -3.39580
C         -3.97590        4.76250       -4.01640
C         -4.70720        3.73100       -3.27940
S         -6.42040        3.63440       -3.07390
C         -6.31670        2.03170       -2.42090
C         -7.54330        1.26810       -2.06100
C         -8.06620        0.48410       -3.26720
C         -5.02090        1.60800       -2.38200
C         -4.10520        2.58220       -2.85630
Cl        -2.40560        2.39980       -2.93530
Cl        -4.54270        0.03960       -1.87530
C         -3.76600        4.55050       -5.36910
S         -4.28590        3.12220       -6.21660
C         -2.90550        5.83290       -2.00580
C         -1.81670        6.60150       -1.73730
S         -1.21100        7.42270       -3.16730
C         -0.95760        6.49220       -0.59110
S          0.63410        5.88230       -0.93710
C          0.98670        5.55550        0.72320
C         -0.06520        5.99430        1.52350
C         -1.18650        6.48280        0.77110
N         -2.32900        6.86910        1.39300
C         -2.34730        6.74440        2.69020
O         -3.42940        7.10060        3.38090
C         -4.52800        7.59730        2.62000
C         -5.66150        7.91290        3.57830
C         -1.22580        6.23690        3.45300
C         -1.33170        6.14110        4.94280
N         -0.33870        5.24170        5.49350
N         -0.11780        5.88910        2.87040
C          2.06840        4.71190        1.09790
C          2.57950        3.79470        0.24850
C          3.47160        2.74160        0.59140
C          3.66200        1.59860       -0.13460
C          4.47460        0.63850        0.51330
C          4.83970       -0.63960        0.06160
C          4.39080       -1.17610       -1.21470
S          2.70340       -1.35040       -1.60230
C          3.04850       -2.12380       -3.11100
C          1.96780       -2.57090       -4.03330
C          1.71010       -1.53970       -5.13390
C          4.39540       -2.21050       -3.30070
Cl         5.11850       -2.91060       -4.68940
C          5.15870       -1.68130       -2.22670
Cl         6.87110       -1.63010       -2.25110
C          5.63890       -1.40130        0.90610
C          6.08570       -0.94500        2.16890
C          5.73790        0.34180        2.61080
C          6.16400        0.83070        3.91330
S          5.00460        1.39270        5.08020
C          6.22540        1.70790        6.26190
C          5.87700        2.29420        7.58500
C          5.69830        3.81040        7.47920
C          7.45640        1.40270        5.76310
C          7.42550        0.89930        4.43440
Cl         8.84950        0.48890        3.56650
Cl         8.91910        1.58130        6.64520
C          4.93390        1.10110        1.77170
S          4.36100        2.71360        2.10060
C          6.81660       -1.95360        2.86180
C          6.91960       -3.10020        2.15930
S          6.14100       -3.04270        0.61750
H          1.67630       -7.88270       10.68360
H          2.34560       -5.59110        9.63780
H          5.35460       -0.79350        8.28280
H          5.94870       -2.39000        8.77870
H          5.80480       -1.39690        5.89300
H          7.27510       -1.46130        6.87380
H          6.44760       -2.95680        6.41600
H         -1.38920      -12.11180        3.45630
H         -2.95050      -12.36370        4.25890
H         -3.25280      -11.86890        1.83550
H         -3.96310      -10.58820        2.82290
H         -2.40260      -10.33160        2.03520
H         -1.26220       -6.84770        3.56640
H          0.16730       -2.46450        2.44200
H          1.38120        0.35950        4.38080
H          2.78100        0.89760        3.48010
H          0.54880        2.66090        4.61230
H          1.82100        3.26100        3.55170
H          2.23410        2.57180        5.12160
H         -4.71310       -9.00180       -2.67970
H         -3.13320       -9.33800       -1.94670
H         -2.05580       -9.11510       -4.18920
H         -3.29920      -10.36930       -4.19390
H         -3.63710       -8.79210       -4.91170
H         -2.23570       -3.27890       -4.21880
H         -0.37650       -6.38160       -6.90970
H         -0.36870       -4.87760       -5.93490
H         -2.78650       -6.70190       -6.39500
H         -1.86410       -6.55210       -4.89110
H         -2.81290       -5.18650       -5.48830
H         -1.19750       -4.09580      -10.35340
H         -2.37640       -2.88640      -10.92310
H         -4.07920       -4.21430       -9.88170
H         -2.96230       -5.33260       -9.42740
H         -2.67900        0.71360       -9.47930
H         -3.08150        3.01940       -9.63120
H         -1.96750        5.14120       -8.14180
H          1.85440        9.61020       -8.62440
H          2.57370        8.84910       -7.19160
H          0.87160       11.38930       -7.18030
H          1.57240       10.62330       -5.75090
H          2.62610       11.32180       -6.98660
H         -8.31270        1.95950       -1.71370
H         -7.30330        0.57480       -1.25220
H         -7.31380       -0.22090       -3.61130
H         -8.96240       -0.06700       -2.99520
H         -8.30530        1.16210       -4.08310
H         -3.40750        5.24430       -1.25960
H         -4.82220        6.83980        1.88490
H         -4.20560        8.48950        2.07120
H         -5.34230        8.65560        4.30450
H         -5.96270        7.01470        4.11060
H         -6.51130        8.29960        3.02380
H         -1.26280        7.17420        5.33220
H         -2.33190        5.77430        5.20160
H         -0.14970        5.46070        6.46410
H          0.52100        5.32560        4.96170
H          2.37010        4.74380        2.13550
H          2.20420        3.75950       -0.76720
H          3.20070        1.43380       -1.09130
H          1.05240       -2.73930       -3.46470
H          2.27010       -3.51590       -4.49080
H          2.60820       -1.38780       -5.72690
H          0.91380       -1.88870       -5.78590
H          1.41370       -0.58750       -4.70040
H          4.94830        1.84770        7.94530
H          6.67670        2.06630        8.29210
H          4.90330        4.04670        6.77570
H          5.44110        4.22470        8.45030
H          6.61780        4.27600        7.13370
H          7.23440       -1.81890        3.84180
H          7.41640       -4.00570        2.44840
