128

C         -0.06080       -3.81170        2.30580
S          1.03140       -3.09980        1.17920
C          2.37570       -3.66230        2.06060
C          2.01020       -4.37060        3.17200
C          2.93430       -4.87540        4.18930
O          2.58620       -5.33310        5.25040
O          4.21910       -4.75640        3.83470
C          0.59030       -4.48250        3.29280
S         -0.17600       -5.41100        4.57550
C         -1.66470       -5.98210        3.83170
C         -1.90020       -6.37600        2.57520
C         -0.94500       -6.46470        1.49610
S          0.64370       -7.14660        1.72770
C          1.06100       -6.85000        0.10160
C          0.04710       -6.26620       -0.60770
C          0.18920       -5.82740       -2.00150
O         -0.56950       -5.08380       -2.57450
O          1.29380       -6.31190       -2.58040
C         -1.11480       -6.06600        0.19440
S         -2.64500       -5.40190       -0.41380
C         -2.18480       -3.73210       -0.58490
C         -2.89620       -2.79380       -1.22880
C         -2.51250       -1.42460       -1.21280
S         -1.31770       -0.82150       -0.10270
C         -1.38340        0.79540       -0.72450
C         -2.32430        0.86540       -1.75280
C         -2.96260       -0.38470       -2.02400
N         -3.87900       -0.50190       -3.01430
C         -4.15310        0.58810       -3.67750
O         -5.02150        0.55820       -4.68980
C         -5.60210       -0.71000       -4.98290
C         -6.52390       -0.54290       -6.17630
C         -3.56610        1.86920       -3.36220
C         -4.01940        3.11090       -4.08490
N         -3.44150        4.35030       -3.61740
N         -2.67020        1.98510       -2.42750
C         -0.52080        1.79310       -0.21980
C         -0.33210        2.98610       -0.83050
C          0.58530        3.96770       -0.38270
S          1.33280        3.88900        1.19600
C          2.24150        5.29700        0.88310
C          2.00450        5.82410       -0.36000
C          2.63760        7.06700       -0.81560
O          2.45340        7.61570       -1.87250
O          3.47480        7.57460        0.10750
C          1.06090        5.04930       -1.09600
S          0.53830        5.39750       -2.74520
C          2.09650        5.49640       -3.55140
C          3.13910        4.70420       -3.29070
C          3.08260        3.51710       -2.47170
S          4.19070        3.20010       -1.17690
C          3.42960        1.69220       -0.74770
C          2.41750        1.40130       -1.66150
C          2.21070        2.45140       -2.61340
N          1.26560        2.34650       -3.58240
C          0.65650        1.20030       -3.66160
O         -0.28300        0.99570       -4.58560
C         -0.56730        2.09230       -5.45030
C         -1.50490        1.60150       -6.53840
C          0.97150        0.08070       -2.79990
C          0.37370       -1.24710       -3.13850
N          0.91750       -2.33060       -2.34900
N          1.78510        0.21050       -1.79420
C          3.84830        1.00380        0.41640
C          3.05690        0.17760        1.14300
C          3.47650       -0.47170        2.32910
S          5.14700       -0.73330        2.73020
C          4.78870       -1.55140        4.21620
C          3.41140       -1.58980        4.41220
C          2.67410       -0.98520        3.34780
N          1.32370       -0.89730        3.38910
C          0.74260       -1.39470        4.44630
O         -0.58480       -1.34090        4.58170
C         -1.31180       -0.66820        3.55810
C         -1.18730        0.84610        3.65570
C          1.47550       -2.03880        5.51270
C          0.73880       -2.61200        6.69400
N          1.51780       -3.47690        7.54900
N          2.77140       -2.12720        5.48030
C          5.84970       -2.07570        5.01950
C          5.67080       -2.78940        6.13290
H         -1.11950       -3.70180        2.18370
H          3.37090       -3.44360        1.72930
H          4.79100       -5.02630        4.57110
H         -2.45770       -6.02750        4.56210
H         -2.91870       -6.62360        2.30320
H          2.03560       -7.10590       -0.26290
H          1.37910       -5.95100       -3.47720
H         -1.26000       -3.47660       -0.09220
H         -3.78200       -3.03920       -1.79450
H         -6.14880       -1.06240       -4.10080
H         -4.80090       -1.42840       -5.19110
H         -5.96270       -0.18890       -7.03690
H         -6.98350       -1.49640       -6.41890
H         -7.30240        0.18040       -5.94940
H         -3.80210        3.00070       -5.15250
H         -5.10960        3.17660       -3.98990
H         -3.62800        4.46490       -2.62640
H         -2.43140        4.33430       -3.71990
H          0.04280        1.54690        0.67170
H         -0.86240        3.20530       -1.74540
H          2.90620        5.68700        1.62730
H          3.85900        8.39960       -0.22820
H          2.15200        6.30330       -4.26220
H          4.10090        4.95180       -3.72340
H          0.37260        2.46940       -5.86810
H         -1.01810        2.89930       -4.86190
H         -1.01820        0.83350       -7.13400
H         -1.78160        2.43000       -7.18400
H         -2.40250        1.17600       -6.09680
H         -0.72360       -1.15040       -3.07100
H          0.58890       -1.44560       -4.19710
H          1.06150       -2.01720       -1.39550
H          0.27100       -3.11170       -2.35160
H          4.84310        1.23240        0.77950
H          2.02790        0.01860        0.85430
H         -0.95270       -1.00710        2.58160
H         -2.34700       -0.98430        3.70600
H         -0.15410        1.14490        3.49830
H         -1.80750        1.30890        2.89340
H         -1.51080        1.18990        4.63500
H          0.36170       -1.77180        7.29170
H         -0.13270       -3.16270        6.32890
H          2.36380       -2.99280        7.83360
H          1.80580       -4.29870        7.02440
H          6.84730       -1.86660        4.65410
H          6.50740       -3.16170        6.69810
H          4.68270       -3.00190        6.50110
