
  xtb     02282223543D
 energy: -390.247863622283 gnorm: 0.000616403665 xtb: 6.4.1 (unknown)
209229  0     0  0            999 V2000
    6.0847    4.3003   -5.3024 C   0  0  0  0  0  0  0  0  0  0  0  0
    5.2569    5.3546   -5.4454 C   0  0  0  0  0  0  0  0  0  0  0  0
    4.0007    5.1591   -4.8017 C   0  0  0  0  0  0  0  0  0  0  0  0
    2.9435    6.0705   -4.6706 C   0  0  0  0  0  0  0  0  0  0  0  0
    3.0297    7.4236   -5.1977 C   0  0  0  0  0  0  0  0  0  0  0  0
    1.8195    8.0498   -6.2761 S   0  0  0  0  0  0  0  0  0  0  0  0
    2.6042    9.5875   -6.3887 C   0  0  0  0  0  0  0  0  0  0  0  0
    2.0100   10.6989   -7.1810 C   0  0  0  0  0  0  0  0  0  0  0  0
    0.9484   11.4395   -6.3639 C   0  0  0  0  0  0  0  0  0  0  0  0
    3.7294    9.6030   -5.6200 C   0  0  0  0  0  0  0  0  0  0  0  0
    4.7675   10.9616   -5.4677 Cl  0  0  0  0  0  0  0  0  0  0  0  0
    3.9769    8.3760   -4.9476 C   0  0  0  0  0  0  0  0  0  0  0  0
    5.2987    8.1638   -3.8750 Cl  0  0  0  0  0  0  0  0  0  0  0  0
    1.8264    5.6433   -3.9683 C   0  0  0  0  0  0  0  0  0  0  0  0
    1.7100    4.3512   -3.3936 C   0  0  0  0  0  0  0  0  0  0  0  0
    2.7683    3.4312   -3.5345 C   0  0  0  0  0  0  0  0  0  0  0  0
    2.7287    2.1033   -2.9449 C   0  0  0  0  0  0  0  0  0  0  0  0
    2.2670    1.8745   -1.2805 S   0  0  0  0  0  0  0  0  0  0  0  0
    2.6023    0.1801   -1.3280 C   0  0  0  0  0  0  0  0  0  0  0  0
    2.3934   -0.7042   -0.1469 C   0  0  0  0  0  0  0  0  0  0  0  0
    2.3046    0.0586    1.1675 C   0  0  0  0  0  0  0  0  0  0  0  0
    3.0339   -0.1785   -2.5707 C   0  0  0  0  0  0  0  0  0  0  0  0
    3.0965    0.9007   -3.4908 C   0  0  0  0  0  0  0  0  0  0  0  0
    3.4819    0.6459   -5.1386 Cl  0  0  0  0  0  0  0  0  0  0  0  0
    3.4867   -1.7760   -2.9973 Cl  0  0  0  0  0  0  0  0  0  0  0  0
    3.8996    3.8736   -4.2182 C   0  0  0  0  0  0  0  0  0  0  0  0
    5.3899    2.9933   -4.4103 S   0  0  0  0  0  0  0  0  0  0  0  0
    0.4859    4.2022   -2.6955 C   0  0  0  0  0  0  0  0  0  0  0  0
   -0.2846    5.3318   -2.6943 C   0  0  0  0  0  0  0  0  0  0  0  0
    0.4516    6.6431   -3.5917 S   0  0  0  0  0  0  0  0  0  0  0  0
   -1.5402    5.5054   -2.0531 C   0  0  0  0  0  0  0  0  0  0  0  0
   -2.2393    7.0735   -1.7746 S   0  0  0  0  0  0  0  0  0  0  0  0
   -3.5856    6.4317   -0.9035 C   0  0  0  0  0  0  0  0  0  0  0  0
   -3.5431    5.0441   -0.9256 C   0  0  0  0  0  0  0  0  0  0  0  0
   -2.3613    4.5149   -1.5294 C   0  0  0  0  0  0  0  0  0  0  0  0
   -2.1196    3.1804   -1.5220 N   0  0  0  0  0  0  0  0  0  0  0  0
   -3.0731    2.4285   -1.0452 C   0  0  0  0  0  0  0  0  0  0  0  0
   -2.9129    1.1154   -0.9308 O   0  0  0  0  0  0  0  0  0  0  0  0
   -1.6437    0.5907   -1.3039 C   0  0  0  0  0  0  0  0  0  0  0  0
   -1.7285   -0.9202   -1.2316 C   0  0  0  0  0  0  0  0  0  0  0  0
   -4.3593    2.9547   -0.6384 C   0  0  0  0  0  0  0  0  0  0  0  0
   -5.5116    2.0172   -0.4061 C   0  0  0  0  0  0  0  0  0  0  0  0
   -6.7849    2.6631   -0.1797 N   0  0  0  0  0  0  0  0  0  0  0  0
   -4.5544    4.2321   -0.5344 N   0  0  0  0  0  0  0  0  0  0  0  0
   -4.5314    7.1949   -0.1182 C   0  0  0  0  0  0  0  0  0  0  0  0
   -4.7077    6.9128    1.1834 C   0  0  0  0  0  0  0  0  0  0  0  0
   -3.8168    6.0392    1.9196 C   0  0  0  0  0  0  0  0  0  0  0  0
   -4.0847    5.0908    2.8571 C   0  0  0  0  0  0  0  0  0  0  0  0
   -2.9387    4.3534    3.2714 C   0  0  0  0  0  0  0  0  0  0  0  0
   -2.8441    3.2213    4.1010 C   0  0  0  0  0  0  0  0  0  0  0  0
   -3.9517    2.6978    4.8886 C   0  0  0  0  0  0  0  0  0  0  0  0
   -3.7378    2.5050    6.6072 S   0  0  0  0  0  0  0  0  0  0  0  0
   -5.3287    1.8595    6.8169 C   0  0  0  0  0  0  0  0  0  0  0  0
   -5.8438    1.4955    8.1657 C   0  0  0  0  0  0  0  0  0  0  0  0
   -6.3803    2.7276    8.8980 C   0  0  0  0  0  0  0  0  0  0  0  0
   -5.9790    1.8121    5.6208 C   0  0  0  0  0  0  0  0  0  0  0  0
   -7.5791    1.2208    5.4211 Cl  0  0  0  0  0  0  0  0  0  0  0  0
   -5.2011    2.2839    4.5280 C   0  0  0  0  0  0  0  0  0  0  0  0
   -5.7820    2.2442    2.9163 Cl  0  0  0  0  0  0  0  0  0  0  0  0
   -1.5987    2.6071    4.1940 C   0  0  0  0  0  0  0  0  0  0  0  0
   -0.4221    3.1252    3.6016 C   0  0  0  0  0  0  0  0  0  0  0  0
   -0.4951    4.3107    2.8539 C   0  0  0  0  0  0  0  0  0  0  0  0
    0.6812    4.9217    2.2583 C   0  0  0  0  0  0  0  0  0  0  0  0
    1.7283    4.0365    1.1921 S   0  0  0  0  0  0  0  0  0  0  0  0
    2.7838    5.3877    0.9715 C   0  0  0  0  0  0  0  0  0  0  0  0
    3.9889    5.2840    0.1008 C   0  0  0  0  0  0  0  0  0  0  0  0
    3.8843    6.1955   -1.1216 C   0  0  0  0  0  0  0  0  0  0  0  0
    2.3314    6.4599    1.6820 C   0  0  0  0  0  0  0  0  0  0  0  0
    1.1361    6.2025    2.4055 C   0  0  0  0  0  0  0  0  0  0  0  0
    0.4028    7.3697    3.4221 Cl  0  0  0  0  0  0  0  0  0  0  0  0
    3.1292    7.9762    1.7484 Cl  0  0  0  0  0  0  0  0  0  0  0  0
   -1.7569    4.8567    2.6712 C   0  0  0  0  0  0  0  0  0  0  0  0
   -2.0939    6.1820    1.6115 S   0  0  0  0  0  0  0  0  0  0  0  0
    0.7053    2.3085    3.8497 C   0  0  0  0  0  0  0  0  0  0  0  0
    0.3985    1.1647    4.5307 C   0  0  0  0  0  0  0  0  0  0  0  0
   -1.2968    1.0685    4.9576 S   0  0  0  0  0  0  0  0  0  0  0  0
    1.2422    0.0746    4.8523 C   0  0  0  0  0  0  0  0  0  0  0  0
    2.9754    0.1353    4.8462 S   0  0  0  0  0  0  0  0  0  0  0  0
    3.1415   -1.5617    5.1871 C   0  0  0  0  0  0  0  0  0  0  0  0
    1.8791   -2.1436    5.3105 C   0  0  0  0  0  0  0  0  0  0  0  0
    0.8136   -1.2138    5.1465 C   0  0  0  0  0  0  0  0  0  0  0  0
   -0.4800   -1.5850    5.2620 N   0  0  0  0  0  0  0  0  0  0  0  0
   -0.7015   -2.8402    5.5404 C   0  0  0  0  0  0  0  0  0  0  0  0
   -1.9421   -3.3070    5.6550 O   0  0  0  0  0  0  0  0  0  0  0  0
   -3.0103   -2.3802    5.4598 C   0  0  0  0  0  0  0  0  0  0  0  0
   -3.2655   -1.5250    6.6926 C   0  0  0  0  0  0  0  0  0  0  0  0
    0.3757   -3.7921    5.7203 C   0  0  0  0  0  0  0  0  0  0  0  0
    0.0715   -5.2289    6.0498 C   0  0  0  0  0  0  0  0  0  0  0  0
    1.2193   -6.1094    6.0650 N   0  0  0  0  0  0  0  0  0  0  0  0
    1.6205   -3.4388    5.6054 N   0  0  0  0  0  0  0  0  0  0  0  0
    4.3994   -2.1640    5.4739 C   0  0  0  0  0  0  0  0  0  0  0  0
    4.7193   -3.4562    5.2166 C   0  0  0  0  0  0  0  0  0  0  0  0
    4.0782   -4.3308    4.3053 C   0  0  0  0  0  0  0  0  0  0  0  0
    3.1205   -3.7913    2.9588 S   0  0  0  0  0  0  0  0  0  0  0  0
    3.0058   -5.3786    2.2552 C   0  0  0  0  0  0  0  0  0  0  0  0
    3.6519   -6.3042    3.0781 C   0  0  0  0  0  0  0  0  0  0  0  0
    4.2671   -5.7109    4.2194 C   0  0  0  0  0  0  0  0  0  0  0  0
    4.9566   -6.4590    5.1118 N   0  0  0  0  0  0  0  0  0  0  0  0
    5.0036   -7.7419    4.8749 C   0  0  0  0  0  0  0  0  0  0  0  0
    5.6396   -8.5652    5.7094 O   0  0  0  0  0  0  0  0  0  0  0  0
    6.2447   -7.9820    6.8604 C   0  0  0  0  0  0  0  0  0  0  0  0
    7.5700   -7.3094    6.5297 C   0  0  0  0  0  0  0  0  0  0  0  0
    4.3815   -8.3489    3.7193 C   0  0  0  0  0  0  0  0  0  0  0  0
    4.5147   -9.8235    3.5066 C   0  0  0  0  0  0  0  0  0  0  0  0
    3.5874  -10.3146    2.5087 N   0  0  0  0  0  0  0  0  0  0  0  0
    3.7364   -7.6333    2.8451 N   0  0  0  0  0  0  0  0  0  0  0  0
    2.3972   -5.6342    1.0078 C   0  0  0  0  0  0  0  0  0  0  0  0
    1.8660   -4.6657    0.2228 C   0  0  0  0  0  0  0  0  0  0  0  0
    1.3063   -4.8502   -1.0694 C   0  0  0  0  0  0  0  0  0  0  0  0
    1.1542   -5.9811   -1.8251 C   0  0  0  0  0  0  0  0  0  0  0  0
    0.5639   -5.7477   -3.0904 C   0  0  0  0  0  0  0  0  0  0  0  0
    0.2403   -6.6845   -4.0886 C   0  0  0  0  0  0  0  0  0  0  0  0
    0.5447   -8.0963   -3.9291 C   0  0  0  0  0  0  0  0  0  0  0  0
    2.1552   -8.6334   -3.5466 S   0  0  0  0  0  0  0  0  0  0  0  0
    1.6923  -10.3005   -3.5701 C   0  0  0  0  0  0  0  0  0  0  0  0
    2.6897  -11.3836   -3.3491 C   0  0  0  0  0  0  0  0  0  0  0  0
    3.3786  -11.7677   -4.6607 C   0  0  0  0  0  0  0  0  0  0  0  0
    0.3676  -10.4183   -3.8665 C   0  0  0  0  0  0  0  0  0  0  0  0
   -0.4560  -11.9191   -3.9787 Cl  0  0  0  0  0  0  0  0  0  0  0  0
   -0.2871   -9.1729   -4.0664 C   0  0  0  0  0  0  0  0  0  0  0  0
   -1.9719   -9.0606   -4.3570 Cl  0  0  0  0  0  0  0  0  0  0  0  0
   -0.3660   -6.1964   -5.2411 C   0  0  0  0  0  0  0  0  0  0  0  0
   -0.6791   -4.8286   -5.4291 C   0  0  0  0  0  0  0  0  0  0  0  0
   -0.3830   -3.8961   -4.4235 C   0  0  0  0  0  0  0  0  0  0  0  0
   -0.7421   -2.4916   -4.5680 C   0  0  0  0  0  0  0  0  0  0  0  0
    0.4364   -1.2190   -4.4738 S   0  0  0  0  0  0  0  0  0  0  0  0
   -0.7545    0.0117   -4.7217 C   0  0  0  0  0  0  0  0  0  0  0  0
   -0.3764    1.4504   -4.7992 C   0  0  0  0  0  0  0  0  0  0  0  0
    0.0910    1.8326   -6.2049 C   0  0  0  0  0  0  0  0  0  0  0  0
   -1.9895   -0.5482   -4.8650 C   0  0  0  0  0  0  0  0  0  0  0  0
   -1.9855   -1.9665   -4.7828 C   0  0  0  0  0  0  0  0  0  0  0  0
   -3.4175   -2.9097   -4.8773 Cl  0  0  0  0  0  0  0  0  0  0  0  0
   -3.4302    0.3606   -5.0853 Cl  0  0  0  0  0  0  0  0  0  0  0  0
    0.2480   -4.3794   -3.2869 C   0  0  0  0  0  0  0  0  0  0  0  0
    0.7062   -3.4320   -1.9090 S   0  0  0  0  0  0  0  0  0  0  0  0
   -1.2387   -4.5872   -6.7169 C   0  0  0  0  0  0  0  0  0  0  0  0
   -1.3408   -5.7078   -7.4601 C   0  0  0  0  0  0  0  0  0  0  0  0
   -0.7728   -7.1280   -6.6544 S   0  0  0  0  0  0  0  0  0  0  0  0
    7.0835    4.1898   -5.6770 H   0  0  0  0  0  0  0  0  0  0  0  0
    5.5126    6.2466   -5.9863 H   0  0  0  0  0  0  0  0  0  0  0  0
    2.8041   11.3917   -7.4652 H   0  0  0  0  0  0  0  0  0  0  0  0
    1.5548   10.2959   -8.0873 H   0  0  0  0  0  0  0  0  0  0  0  0
    0.1537   10.7570   -6.0724 H   0  0  0  0  0  0  0  0  0  0  0  0
    1.3912   11.8603   -5.4647 H   0  0  0  0  0  0  0  0  0  0  0  0
    0.5199   12.2464   -6.9521 H   0  0  0  0  0  0  0  0  0  0  0  0
    1.4705   -1.2730   -0.3003 H   0  0  0  0  0  0  0  0  0  0  0  0
    3.2152   -1.4246   -0.1100 H   0  0  0  0  0  0  0  0  0  0  0  0
    1.4766    0.7647    1.1492 H   0  0  0  0  0  0  0  0  0  0  0  0
    2.1503   -0.6377    1.9879 H   0  0  0  0  0  0  0  0  0  0  0  0
    3.2202    0.6140    1.3524 H   0  0  0  0  0  0  0  0  0  0  0  0
    0.1739    3.3137   -2.1812 H   0  0  0  0  0  0  0  0  0  0  0  0
   -0.8790    0.9863   -0.6237 H   0  0  0  0  0  0  0  0  0  0  0  0
   -1.4037    0.9261   -2.3173 H   0  0  0  0  0  0  0  0  0  0  0  0
   -0.7894   -1.3517   -1.5608 H   0  0  0  0  0  0  0  0  0  0  0  0
   -1.9351   -1.2407   -0.2143 H   0  0  0  0  0  0  0  0  0  0  0  0
   -2.5266   -1.2784   -1.8760 H   0  0  0  0  0  0  0  0  0  0  0  0
   -5.2766    1.3716    0.4465 H   0  0  0  0  0  0  0  0  0  0  0  0
   -5.5978    1.3616   -1.2797 H   0  0  0  0  0  0  0  0  0  0  0  0
   -7.0219    3.2346   -0.9847 H   0  0  0  0  0  0  0  0  0  0  0  0
   -6.7061    3.2994    0.6072 H   0  0  0  0  0  0  0  0  0  0  0  0
   -5.1169    7.9594   -0.6083 H   0  0  0  0  0  0  0  0  0  0  0  0
   -5.5103    7.3754    1.7412 H   0  0  0  0  0  0  0  0  0  0  0  0
   -5.0802    4.8750    3.1988 H   0  0  0  0  0  0  0  0  0  0  0  0
   -6.6440    0.7624    8.0488 H   0  0  0  0  0  0  0  0  0  0  0  0
   -5.0389    1.0473    8.7508 H   0  0  0  0  0  0  0  0  0  0  0  0
   -5.5908    3.4650    9.0215 H   0  0  0  0  0  0  0  0  0  0  0  0
   -7.1919    3.1782    8.3324 H   0  0  0  0  0  0  0  0  0  0  0  0
   -6.7534    2.4465    9.8789 H   0  0  0  0  0  0  0  0  0  0  0  0
    4.0963    4.2472   -0.2227 H   0  0  0  0  0  0  0  0  0  0  0  0
    4.8742    5.5605    0.6802 H   0  0  0  0  0  0  0  0  0  0  0  0
    3.8791    7.2399   -0.8243 H   0  0  0  0  0  0  0  0  0  0  0  0
    2.9688    5.9874   -1.6668 H   0  0  0  0  0  0  0  0  0  0  0  0
    4.7282    6.0270   -1.7851 H   0  0  0  0  0  0  0  0  0  0  0  0
    1.6993    2.5310    3.5074 H   0  0  0  0  0  0  0  0  0  0  0  0
   -3.8761   -3.0070    5.2356 H   0  0  0  0  0  0  0  0  0  0  0  0
   -2.7773   -1.7387    4.6045 H   0  0  0  0  0  0  0  0  0  0  0  0
   -2.4090   -0.8853    6.8861 H   0  0  0  0  0  0  0  0  0  0  0  0
   -3.4460   -2.1569    7.5588 H   0  0  0  0  0  0  0  0  0  0  0  0
   -4.1365   -0.8991    6.5203 H   0  0  0  0  0  0  0  0  0  0  0  0
   -0.4017   -5.2587    7.0388 H   0  0  0  0  0  0  0  0  0  0  0  0
   -0.6635   -5.6085    5.3331 H   0  0  0  0  0  0  0  0  0  0  0  0
    1.9442   -5.7068    6.6515 H   0  0  0  0  0  0  0  0  0  0  0  0
    1.6095   -6.1823    5.1307 H   0  0  0  0  0  0  0  0  0  0  0  0
    5.1191   -1.5419    5.9893 H   0  0  0  0  0  0  0  0  0  0  0  0
    5.5963   -3.8816    5.6871 H   0  0  0  0  0  0  0  0  0  0  0  0
    5.5517   -7.2573    7.2988 H   0  0  0  0  0  0  0  0  0  0  0  0
    6.3936   -8.8192    7.5460 H   0  0  0  0  0  0  0  0  0  0  0  0
    8.0269   -6.9381    7.4423 H   0  0  0  0  0  0  0  0  0  0  0  0
    7.4032   -6.4761    5.8524 H   0  0  0  0  0  0  0  0  0  0  0  0
    8.2451   -8.0197    6.0585 H   0  0  0  0  0  0  0  0  0  0  0  0
    4.3210  -10.3319    4.4591 H   0  0  0  0  0  0  0  0  0  0  0  0
    5.5752  -10.0131    3.2595 H   0  0  0  0  0  0  0  0  0  0  0  0
    3.4225   -9.5900    1.8186 H   0  0  0  0  0  0  0  0  0  0  0  0
    3.9495  -11.1394    2.0465 H   0  0  0  0  0  0  0  0  0  0  0  0
    2.4073   -6.6687    0.6967 H   0  0  0  0  0  0  0  0  0  0  0  0
    1.8780   -3.6472    0.5898 H   0  0  0  0  0  0  0  0  0  0  0  0
    1.4509   -6.9552   -1.4843 H   0  0  0  0  0  0  0  0  0  0  0  0
    3.4382  -11.0455   -2.6305 H   0  0  0  0  0  0  0  0  0  0  0  0
    2.1756  -12.2545   -2.9380 H   0  0  0  0  0  0  0  0  0  0  0  0
    3.8958  -10.9083   -5.0808 H   0  0  0  0  0  0  0  0  0  0  0  0
    2.6449  -12.1183   -5.3820 H   0  0  0  0  0  0  0  0  0  0  0  0
    4.1015  -12.5598   -4.4856 H   0  0  0  0  0  0  0  0  0  0  0  0
    0.4300    1.6490   -4.0926 H   0  0  0  0  0  0  0  0  0  0  0  0
   -1.2391    2.0618   -4.5254 H   0  0  0  0  0  0  0  0  0  0  0  0
    0.9539    1.2363   -6.4897 H   0  0  0  0  0  0  0  0  0  0  0  0
   -0.7031    1.6673   -6.9286 H   0  0  0  0  0  0  0  0  0  0  0  0
    0.3719    2.8825   -6.2259 H   0  0  0  0  0  0  0  0  0  0  0  0
   -1.5332   -3.6125   -7.0599 H   0  0  0  0  0  0  0  0  0  0  0  0
   -1.7228   -5.8046   -8.4576 H   0  0  0  0  0  0  0  0  0  0  0  0
  1  2  2  0  0  0  0
  2  3  1  0  0  0  0
  3  4  2  0  0  0  0
  4  5  1  0  0  0  0
  5  6  1  0  0  0  0
  6  7  1  0  0  0  0
  7  8  1  0  0  0  0
  8  9  1  0  0  0  0
  7 10  2  0  0  0  0
 10 11  1  0  0  0  0
 10 12  1  0  0  0  0
 12 13  1  0  0  0  0
  4 14  1  0  0  0  0
 14 15  2  0  0  0  0
 15 16  1  0  0  0  0
 16 17  1  0  0  0  0
 17 18  1  0  0  0  0
 18 19  1  0  0  0  0
 19 20  1  0  0  0  0
 20 21  1  0  0  0  0
 19 22  2  0  0  0  0
 22 23  1  0  0  0  0
 23 24  1  0  0  0  0
 22 25  1  0  0  0  0
 16 26  2  0  0  0  0
 26 27  1  0  0  0  0
 15 28  1  0  0  0  0
 28 29  2  0  0  0  0
 29 30  1  0  0  0  0
 29 31  1  0  0  0  0
 31 32  1  0  0  0  0
 32 33  1  0  0  0  0
 33 34  2  0  0  0  0
 34 35  1  0  0  0  0
 35 36  1  0  0  0  0
 36 37  2  0  0  0  0
 37 38  1  0  0  0  0
 38 39  1  0  0  0  0
 39 40  1  0  0  0  0
 37 41  1  0  0  0  0
 41 42  1  0  0  0  0
 42 43  1  0  0  0  0
 41 44  2  0  0  0  0
 33 45  1  0  0  0  0
 45 46  2  0  0  0  0
 46 47  1  0  0  0  0
 47 48  2  0  0  0  0
 48 49  1  0  0  0  0
 49 50  2  0  0  0  0
 50 51  1  0  0  0  0
 51 52  1  0  0  0  0
 52 53  1  0  0  0  0
 53 54  1  0  0  0  0
 54 55  1  0  0  0  0
 53 56  2  0  0  0  0
 56 57  1  0  0  0  0
 56 58  1  0  0  0  0
 58 59  1  0  0  0  0
 50 60  1  0  0  0  0
 60 61  2  0  0  0  0
 61 62  1  0  0  0  0
 62 63  1  0  0  0  0
 63 64  1  0  0  0  0
 64 65  1  0  0  0  0
 65 66  1  0  0  0  0
 66 67  1  0  0  0  0
 65 68  2  0  0  0  0
 68 69  1  0  0  0  0
 69 70  1  0  0  0  0
 68 71  1  0  0  0  0
 62 72  2  0  0  0  0
 72 73  1  0  0  0  0
 61 74  1  0  0  0  0
 74 75  2  0  0  0  0
 75 76  1  0  0  0  0
 75 77  1  0  0  0  0
 77 78  1  0  0  0  0
 78 79  1  0  0  0  0
 79 80  2  0  0  0  0
 80 81  1  0  0  0  0
 81 82  1  0  0  0  0
 82 83  2  0  0  0  0
 83 84  1  0  0  0  0
 84 85  1  0  0  0  0
 85 86  1  0  0  0  0
 83 87  1  0  0  0  0
 87 88  1  0  0  0  0
 88 89  1  0  0  0  0
 87 90  2  0  0  0  0
 79 91  1  0  0  0  0
 91 92  2  0  0  0  0
 92 93  1  0  0  0  0
 93 94  1  0  0  0  0
 94 95  1  0  0  0  0
 95 96  2  0  0  0  0
 96 97  1  0  0  0  0
 97 98  1  0  0  0  0
 98 99  2  0  0  0  0
 99100  1  0  0  0  0
100101  1  0  0  0  0
101102  1  0  0  0  0
 99103  1  0  0  0  0
103104  1  0  0  0  0
104105  1  0  0  0  0
103106  2  0  0  0  0
 95107  1  0  0  0  0
107108  2  0  0  0  0
108109  1  0  0  0  0
109110  2  0  0  0  0
110111  1  0  0  0  0
111112  2  0  0  0  0
112113  1  0  0  0  0
113114  1  0  0  0  0
114115  1  0  0  0  0
115116  1  0  0  0  0
116117  1  0  0  0  0
115118  2  0  0  0  0
118119  1  0  0  0  0
118120  1  0  0  0  0
120121  1  0  0  0  0
112122  1  0  0  0  0
122123  2  0  0  0  0
123124  1  0  0  0  0
124125  1  0  0  0  0
125126  1  0  0  0  0
126127  1  0  0  0  0
127128  1  0  0  0  0
128129  1  0  0  0  0
127130  2  0  0  0  0
130131  1  0  0  0  0
131132  1  0  0  0  0
130133  1  0  0  0  0
124134  2  0  0  0  0
134135  1  0  0  0  0
123136  1  0  0  0  0
136137  2  0  0  0  0
137138  1  0  0  0  0
 27  1  1  0  0  0  0
 35 31  2  0  0  0  0
 73 47  1  0  0  0  0
 81 77  2  0  0  0  0
 97 93  2  0  0  0  0
135109  1  0  0  0  0
 26  3  1  0  0  0  0
 44 34  1  0  0  0  0
 72 49  1  0  0  0  0
 90 80  1  0  0  0  0
106 96  1  0  0  0  0
134111  1  0  0  0  0
 12  5  2  0  0  0  0
 30 14  1  0  0  0  0
 58 51  2  0  0  0  0
 76 60  1  0  0  0  0
120113  2  0  0  0  0
138122  1  0  0  0  0
 23 17  2  0  0  0  0
 69 63  2  0  0  0  0
131125  2  0  0  0  0
  1139  1  0  0  0  0
  2140  1  0  0  0  0
  8141  1  0  0  0  0
  8142  1  0  0  0  0
  9143  1  0  0  0  0
  9144  1  0  0  0  0
  9145  1  0  0  0  0
 20146  1  0  0  0  0
 20147  1  0  0  0  0
 21148  1  0  0  0  0
 21149  1  0  0  0  0
 21150  1  0  0  0  0
 28151  1  0  0  0  0
 39152  1  0  0  0  0
 39153  1  0  0  0  0
 40154  1  0  0  0  0
 40155  1  0  0  0  0
 40156  1  0  0  0  0
 42157  1  0  0  0  0
 42158  1  0  0  0  0
 43159  1  0  0  0  0
 43160  1  0  0  0  0
 45161  1  0  0  0  0
 46162  1  0  0  0  0
 48163  1  0  0  0  0
 54164  1  0  0  0  0
 54165  1  0  0  0  0
 55166  1  0  0  0  0
 55167  1  0  0  0  0
 55168  1  0  0  0  0
 66169  1  0  0  0  0
 66170  1  0  0  0  0
 67171  1  0  0  0  0
 67172  1  0  0  0  0
 67173  1  0  0  0  0
 74174  1  0  0  0  0
 85175  1  0  0  0  0
 85176  1  0  0  0  0
 86177  1  0  0  0  0
 86178  1  0  0  0  0
 86179  1  0  0  0  0
 88180  1  0  0  0  0
 88181  1  0  0  0  0
 89182  1  0  0  0  0
 89183  1  0  0  0  0
 91184  1  0  0  0  0
 92185  1  0  0  0  0
101186  1  0  0  0  0
101187  1  0  0  0  0
102188  1  0  0  0  0
102189  1  0  0  0  0
102190  1  0  0  0  0
104191  1  0  0  0  0
104192  1  0  0  0  0
105193  1  0  0  0  0
105194  1  0  0  0  0
107195  1  0  0  0  0
108196  1  0  0  0  0
110197  1  0  0  0  0
116198  1  0  0  0  0
116199  1  0  0  0  0
117200  1  0  0  0  0
117201  1  0  0  0  0
117202  1  0  0  0  0
128203  1  0  0  0  0
128204  1  0  0  0  0
129205  1  0  0  0  0
129206  1  0  0  0  0
129207  1  0  0  0  0
136208  1  0  0  0  0
137209  1  0  0  0  0
M  END
