
  xtb     03032221233D
 energy: -397.048709902520 gnorm: 0.000194432219 xtb: 6.4.1 (unknown)
222243  0     0  0            999 V2000
   15.6076    0.9790    8.6526 C   0  0  0  0  0  0  0  0  0  0  0  0
   14.8068    2.0386    8.4209 C   0  0  0  0  0  0  0  0  0  0  0  0
   14.1848    1.9933    7.1375 C   0  0  0  0  0  0  0  0  0  0  0  0
   13.2975    2.9196    6.5716 C   0  0  0  0  0  0  0  0  0  0  0  0
   12.9068    4.1477    7.2759 C   0  0  0  0  0  0  0  0  0  0  0  0
   13.8630    5.0306    7.7754 C   0  0  0  0  0  0  0  0  0  0  0  0
   13.4806    6.1899    8.4137 C   0  0  0  0  0  0  0  0  0  0  0  0
   12.1350    6.5118    8.5971 C   0  0  0  0  0  0  0  0  0  0  0  0
   11.7859    8.0044    9.4696 S   0  0  0  0  0  0  0  0  0  0  0  0
   10.1566    8.5484    8.8162 C   0  0  0  0  0  0  0  0  0  0  0  0
   10.0047   10.0359    9.0656 C   0  0  0  0  0  0  0  0  0  0  0  0
   11.1930    5.6070    8.1168 C   0  0  0  0  0  0  0  0  0  0  0  0
    9.8688    5.8160    8.2965 F   0  0  0  0  0  0  0  0  0  0  0  0
   11.5626    4.4551    7.4526 C   0  0  0  0  0  0  0  0  0  0  0  0
   12.8018    2.6153    5.3120 C   0  0  0  0  0  0  0  0  0  0  0  0
   13.1705    1.4526    4.5949 C   0  0  0  0  0  0  0  0  0  0  0  0
   14.0663    0.5292    5.1565 C   0  0  0  0  0  0  0  0  0  0  0  0
   14.4625   -0.6795    4.4249 C   0  0  0  0  0  0  0  0  0  0  0  0
   14.9284   -0.5997    3.1150 C   0  0  0  0  0  0  0  0  0  0  0  0
   15.2716   -1.7352    2.4083 C   0  0  0  0  0  0  0  0  0  0  0  0
   15.1478   -2.9957    2.9821 C   0  0  0  0  0  0  0  0  0  0  0  0
   15.5362   -4.5167    2.1831 S   0  0  0  0  0  0  0  0  0  0  0  0
   15.5063   -4.0973    0.4052 C   0  0  0  0  0  0  0  0  0  0  0  0
   14.1147   -3.7401   -0.0806 C   0  0  0  0  0  0  0  0  0  0  0  0
   14.7054   -3.0584    4.3047 C   0  0  0  0  0  0  0  0  0  0  0  0
   14.3692   -1.9338    5.0240 C   0  0  0  0  0  0  0  0  0  0  0  0
   14.5867   -4.2620    4.8993 F   0  0  0  0  0  0  0  0  0  0  0  0
   14.5421    0.8214    6.4269 C   0  0  0  0  0  0  0  0  0  0  0  0
   15.6616   -0.1525    7.3453 S   0  0  0  0  0  0  0  0  0  0  0  0
   12.5055    1.3689    3.3430 C   0  0  0  0  0  0  0  0  0  0  0  0
   11.6858    2.4236    3.0830 C   0  0  0  0  0  0  0  0  0  0  0  0
   11.6863    3.5907    4.3968 S   0  0  0  0  0  0  0  0  0  0  0  0
   10.8193    2.6372    1.9444 C   0  0  0  0  0  0  0  0  0  0  0  0
    9.7668    3.5562    2.0091 C   0  0  0  0  0  0  0  0  0  0  0  0
    8.8719    3.7122    0.9762 C   0  0  0  0  0  0  0  0  0  0  0  0
    8.9741    2.9578   -0.1938 C   0  0  0  0  0  0  0  0  0  0  0  0
   10.0542    2.0817   -0.2911 C   0  0  0  0  0  0  0  0  0  0  0  0
   10.2496    1.3665   -1.4147 F   0  0  0  0  0  0  0  0  0  0  0  0
   10.9578    1.9268    0.7476 C   0  0  0  0  0  0  0  0  0  0  0  0
   11.9772    1.0652    0.5668 F   0  0  0  0  0  0  0  0  0  0  0  0
    7.9285    3.0167   -1.2215 C   0  0  0  0  0  0  0  0  0  0  0  0
    7.4193    1.8483   -1.7909 C   0  0  0  0  0  0  0  0  0  0  0  0
    6.3174    1.8726   -2.6136 C   0  0  0  0  0  0  0  0  0  0  0  0
    5.6563    3.0671   -2.9219 C   0  0  0  0  0  0  0  0  0  0  0  0
    6.2183    4.2451   -2.4220 C   0  0  0  0  0  0  0  0  0  0  0  0
    5.6744    5.4357   -2.7263 F   0  0  0  0  0  0  0  0  0  0  0  0
    7.3260    4.2193   -1.5896 C   0  0  0  0  0  0  0  0  0  0  0  0
    7.8116    5.3876   -1.1337 F   0  0  0  0  0  0  0  0  0  0  0  0
    4.3783    3.0404   -3.6017 C   0  0  0  0  0  0  0  0  0  0  0  0
    3.8527    2.0135   -4.3284 C   0  0  0  0  0  0  0  0  0  0  0  0
    2.4723    2.1656   -4.6097 C   0  0  0  0  0  0  0  0  0  0  0  0
    1.6200    1.2538   -5.2478 C   0  0  0  0  0  0  0  0  0  0  0  0
    2.0358   -0.0531   -5.7768 C   0  0  0  0  0  0  0  0  0  0  0  0
    1.7044   -0.4166   -7.0810 C   0  0  0  0  0  0  0  0  0  0  0  0
    1.9325   -1.6985   -7.5321 C   0  0  0  0  0  0  0  0  0  0  0  0
    2.4877   -2.6666   -6.6989 C   0  0  0  0  0  0  0  0  0  0  0  0
    2.6729   -4.3062   -7.3268 S   0  0  0  0  0  0  0  0  0  0  0  0
    2.1403   -5.3315   -5.8951 C   0  0  0  0  0  0  0  0  0  0  0  0
    1.5246   -6.6173   -6.4076 C   0  0  0  0  0  0  0  0  0  0  0  0
    2.8695   -2.2728   -5.4195 C   0  0  0  0  0  0  0  0  0  0  0  0
    3.4688   -3.1467   -4.5811 F   0  0  0  0  0  0  0  0  0  0  0  0
    2.6448   -0.9928   -4.9531 C   0  0  0  0  0  0  0  0  0  0  0  0
    0.2716    1.5660   -5.2450 C   0  0  0  0  0  0  0  0  0  0  0  0
   -0.2634    2.7423   -4.6686 C   0  0  0  0  0  0  0  0  0  0  0  0
    0.6022    3.7092   -4.1276 C   0  0  0  0  0  0  0  0  0  0  0  0
    0.0733    4.9764   -3.6143 C   0  0  0  0  0  0  0  0  0  0  0  0
   -0.8319    5.7087   -4.3796 C   0  0  0  0  0  0  0  0  0  0  0  0
   -1.3380    6.9143   -3.9360 C   0  0  0  0  0  0  0  0  0  0  0  0
   -0.9587    7.4344   -2.7035 C   0  0  0  0  0  0  0  0  0  0  0  0
   -1.5346    8.9431   -2.0033 S   0  0  0  0  0  0  0  0  0  0  0  0
   -2.3549    9.8000   -3.3918 C   0  0  0  0  0  0  0  0  0  0  0  0
   -1.3641   10.3097   -4.4214 C   0  0  0  0  0  0  0  0  0  0  0  0
   -0.0639    6.6818   -1.9393 C   0  0  0  0  0  0  0  0  0  0  0  0
    0.4517    5.4815   -2.3719 C   0  0  0  0  0  0  0  0  0  0  0  0
    0.3059    7.1422   -0.7286 F   0  0  0  0  0  0  0  0  0  0  0  0
    1.9506    3.3748   -4.0812 C   0  0  0  0  0  0  0  0  0  0  0  0
    3.2037    4.3092   -3.3162 S   0  0  0  0  0  0  0  0  0  0  0  0
   -1.6773    2.6700   -4.5484 C   0  0  0  0  0  0  0  0  0  0  0  0
   -2.2001    1.4934   -4.9968 C   0  0  0  0  0  0  0  0  0  0  0  0
   -0.9818    0.4555   -5.7237 S   0  0  0  0  0  0  0  0  0  0  0  0
   -3.4758    0.9176   -4.7239 C   0  0  0  0  0  0  0  0  0  0  0  0
   -3.8123   -0.3831   -4.9593 C   0  0  0  0  0  0  0  0  0  0  0  0
   -4.9707   -0.8089   -4.2673 C   0  0  0  0  0  0  0  0  0  0  0  0
   -5.4614   -2.1207   -4.1483 C   0  0  0  0  0  0  0  0  0  0  0  0
   -4.7701   -3.2450   -4.7925 C   0  0  0  0  0  0  0  0  0  0  0  0
   -5.4576   -4.1791   -5.5596 C   0  0  0  0  0  0  0  0  0  0  0  0
   -4.7953   -5.2193   -6.1848 C   0  0  0  0  0  0  0  0  0  0  0  0
   -3.4179   -5.3626   -6.0650 C   0  0  0  0  0  0  0  0  0  0  0  0
   -2.4404   -6.6270   -6.8047 S   0  0  0  0  0  0  0  0  0  0  0  0
   -3.5673   -7.4468   -7.9822 C   0  0  0  0  0  0  0  0  0  0  0  0
   -3.8483   -6.5914   -9.2032 C   0  0  0  0  0  0  0  0  0  0  0  0
   -2.7455   -4.4361   -5.2653 C   0  0  0  0  0  0  0  0  0  0  0  0
   -1.4106   -4.5578   -5.1035 F   0  0  0  0  0  0  0  0  0  0  0  0
   -3.3923   -3.3993   -4.6350 C   0  0  0  0  0  0  0  0  0  0  0  0
   -6.5638   -2.2969   -3.3264 C   0  0  0  0  0  0  0  0  0  0  0  0
   -7.1619   -1.2306   -2.6103 C   0  0  0  0  0  0  0  0  0  0  0  0
   -6.6554    0.0763   -2.7115 C   0  0  0  0  0  0  0  0  0  0  0  0
   -7.2133    1.1540   -1.8847 C   0  0  0  0  0  0  0  0  0  0  0  0
   -7.6556    2.3523   -2.4387 C   0  0  0  0  0  0  0  0  0  0  0  0
   -8.2549    3.3092   -1.6456 C   0  0  0  0  0  0  0  0  0  0  0  0
   -8.4117    3.1210   -0.2741 C   0  0  0  0  0  0  0  0  0  0  0  0
   -9.2267    4.3846    0.6563 S   0  0  0  0  0  0  0  0  0  0  0  0
  -10.2938    3.4375    1.8057 C   0  0  0  0  0  0  0  0  0  0  0  0
  -11.2341    2.5071    1.0664 C   0  0  0  0  0  0  0  0  0  0  0  0
   -7.8880    1.9546    0.2773 C   0  0  0  0  0  0  0  0  0  0  0  0
   -7.3179    0.9751   -0.5085 C   0  0  0  0  0  0  0  0  0  0  0  0
   -7.9259    1.7386    1.6065 F   0  0  0  0  0  0  0  0  0  0  0  0
   -5.5704    0.2572   -3.5501 C   0  0  0  0  0  0  0  0  0  0  0  0
   -4.6646    1.7401   -3.7300 S   0  0  0  0  0  0  0  0  0  0  0  0
   -8.2120   -1.6791   -1.7745 C   0  0  0  0  0  0  0  0  0  0  0  0
   -8.3891   -3.0316   -1.7910 C   0  0  0  0  0  0  0  0  0  0  0  0
   -7.3038   -3.8239   -2.9156 S   0  0  0  0  0  0  0  0  0  0  0  0
   -9.2637   -3.7700   -0.9355 C   0  0  0  0  0  0  0  0  0  0  0  0
   -9.9582   -3.2632    0.1243 C   0  0  0  0  0  0  0  0  0  0  0  0
  -10.6557   -4.2437    0.8709 C   0  0  0  0  0  0  0  0  0  0  0  0
  -11.4453   -4.0500    2.0158 C   0  0  0  0  0  0  0  0  0  0  0  0
  -11.5615   -2.7301    2.6472 C   0  0  0  0  0  0  0  0  0  0  0  0
  -12.8003   -2.1932    2.9842 C   0  0  0  0  0  0  0  0  0  0  0  0
  -12.9019   -0.9536    3.5862 C   0  0  0  0  0  0  0  0  0  0  0  0
  -11.7656   -0.2125    3.8881 C   0  0  0  0  0  0  0  0  0  0  0  0
  -11.7631    1.3848    4.6382 S   0  0  0  0  0  0  0  0  0  0  0  0
  -13.3559    1.4465    5.5289 C   0  0  0  0  0  0  0  0  0  0  0  0
  -13.4158    0.4408    6.6620 C   0  0  0  0  0  0  0  0  0  0  0  0
  -10.5289   -0.7604    3.5433 C   0  0  0  0  0  0  0  0  0  0  0  0
   -9.4076   -0.0716    3.8223 F   0  0  0  0  0  0  0  0  0  0  0  0
  -10.4148   -1.9906    2.9360 C   0  0  0  0  0  0  0  0  0  0  0  0
  -12.0686   -5.1760    2.5338 C   0  0  0  0  0  0  0  0  0  0  0  0
  -11.9147   -6.4704    1.9803 C   0  0  0  0  0  0  0  0  0  0  0  0
  -11.1127   -6.6641    0.8453 C   0  0  0  0  0  0  0  0  0  0  0  0
  -10.9356   -7.9919    0.2439 C   0  0  0  0  0  0  0  0  0  0  0  0
   -9.6644   -8.4909   -0.0338 C   0  0  0  0  0  0  0  0  0  0  0  0
   -9.5079   -9.7434   -0.5875 C   0  0  0  0  0  0  0  0  0  0  0  0
  -10.6065  -10.5407   -0.9014 C   0  0  0  0  0  0  0  0  0  0  0  0
  -10.2863  -12.1119   -1.6496 S   0  0  0  0  0  0  0  0  0  0  0  0
  -11.4828  -13.2353   -0.8369 C   0  0  0  0  0  0  0  0  0  0  0  0
  -11.3126  -13.2505    0.6689 C   0  0  0  0  0  0  0  0  0  0  0  0
  -11.8705  -10.0146   -0.6521 C   0  0  0  0  0  0  0  0  0  0  0  0
  -12.0419   -8.7727   -0.0753 C   0  0  0  0  0  0  0  0  0  0  0  0
  -12.9860  -10.7081   -0.9722 F   0  0  0  0  0  0  0  0  0  0  0  0
  -10.4936   -5.5388    0.3206 C   0  0  0  0  0  0  0  0  0  0  0  0
   -9.4617   -5.5025   -1.0867 S   0  0  0  0  0  0  0  0  0  0  0  0
  -12.5981   -7.4546    2.7561 C   0  0  0  0  0  0  0  0  0  0  0  0
  -13.2387   -6.9344    3.8217 C   0  0  0  0  0  0  0  0  0  0  0  0
  -13.0626   -5.2191    3.9678 S   0  0  0  0  0  0  0  0  0  0  0  0
   16.1854    0.7705    9.5319 H   0  0  0  0  0  0  0  0  0  0  0  0
   14.6401    2.8293    9.1296 H   0  0  0  0  0  0  0  0  0  0  0  0
   14.9116    4.8178    7.6330 H   0  0  0  0  0  0  0  0  0  0  0  0
   14.2229    6.8787    8.7861 H   0  0  0  0  0  0  0  0  0  0  0  0
   10.1448    8.3244    7.7507 H   0  0  0  0  0  0  0  0  0  0  0  0
    9.3757    7.9832    9.3225 H   0  0  0  0  0  0  0  0  0  0  0  0
   10.0512   10.2511   10.1308 H   0  0  0  0  0  0  0  0  0  0  0  0
   10.7963   10.5906    8.5669 H   0  0  0  0  0  0  0  0  0  0  0  0
    9.0443   10.3745    8.6830 H   0  0  0  0  0  0  0  0  0  0  0  0
   10.7878    3.7882    7.1079 H   0  0  0  0  0  0  0  0  0  0  0  0
   15.0445    0.3666    2.6480 H   0  0  0  0  0  0  0  0  0  0  0  0
   15.6415   -1.6284    1.4016 H   0  0  0  0  0  0  0  0  0  0  0  0
   16.2294   -3.3045    0.2182 H   0  0  0  0  0  0  0  0  0  0  0  0
   15.8622   -5.0097   -0.0735 H   0  0  0  0  0  0  0  0  0  0  0  0
   13.7396   -2.8509    0.4215 H   0  0  0  0  0  0  0  0  0  0  0  0
   13.4274   -4.5601    0.1139 H   0  0  0  0  0  0  0  0  0  0  0  0
   14.1351   -3.5494   -1.1518 H   0  0  0  0  0  0  0  0  0  0  0  0
   14.0091   -2.0463    6.0342 H   0  0  0  0  0  0  0  0  0  0  0  0
   12.6204    0.5255    2.6889 H   0  0  0  0  0  0  0  0  0  0  0  0
    9.6450    4.1370    2.9104 H   0  0  0  0  0  0  0  0  0  0  0  0
    8.0562    4.4082    1.0857 H   0  0  0  0  0  0  0  0  0  0  0  0
    7.8693    0.9010   -1.5418 H   0  0  0  0  0  0  0  0  0  0  0  0
    5.9218    0.9441   -2.9909 H   0  0  0  0  0  0  0  0  0  0  0  0
    4.4184    1.1603   -4.6553 H   0  0  0  0  0  0  0  0  0  0  0  0
    1.2523    0.3113   -7.7374 H   0  0  0  0  0  0  0  0  0  0  0  0
    1.6587   -1.9835   -8.5357 H   0  0  0  0  0  0  0  0  0  0  0  0
    1.4073   -4.7480   -5.3410 H   0  0  0  0  0  0  0  0  0  0  0  0
    3.0128   -5.5268   -5.2729 H   0  0  0  0  0  0  0  0  0  0  0  0
    2.2373   -7.1715   -7.0144 H   0  0  0  0  0  0  0  0  0  0  0  0
    0.6434   -6.4031   -7.0073 H   0  0  0  0  0  0  0  0  0  0  0  0
    1.2235   -7.2360   -5.5653 H   0  0  0  0  0  0  0  0  0  0  0  0
    2.9154   -0.7510   -3.9366 H   0  0  0  0  0  0  0  0  0  0  0  0
   -1.1296    5.3369   -5.3488 H   0  0  0  0  0  0  0  0  0  0  0  0
   -2.0383    7.4440   -4.5611 H   0  0  0  0  0  0  0  0  0  0  0  0
   -2.8705   10.6294   -2.9078 H   0  0  0  0  0  0  0  0  0  0  0  0
   -3.1016    9.1339   -3.8221 H   0  0  0  0  0  0  0  0  0  0  0  0
   -0.8040    9.4902   -4.8666 H   0  0  0  0  0  0  0  0  0  0  0  0
   -0.6575   10.9919   -3.9549 H   0  0  0  0  0  0  0  0  0  0  0  0
   -1.8914   10.8410   -5.2115 H   0  0  0  0  0  0  0  0  0  0  0  0
    1.1249    4.9416   -1.7258 H   0  0  0  0  0  0  0  0  0  0  0  0
   -2.2709    3.4203   -4.0563 H   0  0  0  0  0  0  0  0  0  0  0  0
   -3.2138   -1.0281   -5.5768 H   0  0  0  0  0  0  0  0  0  0  0  0
   -6.5251   -4.0832   -5.6872 H   0  0  0  0  0  0  0  0  0  0  0  0
   -5.3692   -5.9201   -6.7685 H   0  0  0  0  0  0  0  0  0  0  0  0
   -3.0289   -8.3528   -8.2606 H   0  0  0  0  0  0  0  0  0  0  0  0
   -4.4749   -7.7330   -7.4523 H   0  0  0  0  0  0  0  0  0  0  0  0
   -4.3327   -5.6576   -8.9257 H   0  0  0  0  0  0  0  0  0  0  0  0
   -4.4985   -7.1300   -9.8900 H   0  0  0  0  0  0  0  0  0  0  0  0
   -2.9194   -6.3552   -9.7169 H   0  0  0  0  0  0  0  0  0  0  0  0
   -2.8231   -2.7301   -4.0091 H   0  0  0  0  0  0  0  0  0  0  0  0
   -7.5626    2.5159   -3.5014 H   0  0  0  0  0  0  0  0  0  0  0  0
   -8.6280    4.2232   -2.0805 H   0  0  0  0  0  0  0  0  0  0  0  0
  -10.8467    4.2152    2.3316 H   0  0  0  0  0  0  0  0  0  0  0  0
   -9.6732    2.9027    2.5209 H   0  0  0  0  0  0  0  0  0  0  0  0
  -11.9059    2.0319    1.7778 H   0  0  0  0  0  0  0  0  0  0  0  0
  -10.6807    1.7271    0.5459 H   0  0  0  0  0  0  0  0  0  0  0  0
  -11.8249    3.0568    0.3364 H   0  0  0  0  0  0  0  0  0  0  0  0
   -6.9293    0.0880   -0.0322 H   0  0  0  0  0  0  0  0  0  0  0  0
   -8.8080   -1.0152   -1.1770 H   0  0  0  0  0  0  0  0  0  0  0  0
   -9.9752   -2.2185    0.3720 H   0  0  0  0  0  0  0  0  0  0  0  0
  -13.7006   -2.7413    2.7530 H   0  0  0  0  0  0  0  0  0  0  0  0
  -13.8809   -0.5638    3.8140 H   0  0  0  0  0  0  0  0  0  0  0  0
  -14.1669    1.3162    4.8134 H   0  0  0  0  0  0  0  0  0  0  0  0
  -13.3909    2.4669    5.9105 H   0  0  0  0  0  0  0  0  0  0  0  0
  -13.3414   -0.5772    6.2846 H   0  0  0  0  0  0  0  0  0  0  0  0
  -14.3563    0.5446    7.1994 H   0  0  0  0  0  0  0  0  0  0  0  0
  -12.5969    0.6102    7.3573 H   0  0  0  0  0  0  0  0  0  0  0  0
   -9.4319   -2.3801    2.7219 H   0  0  0  0  0  0  0  0  0  0  0  0
   -8.7930   -7.9048    0.2129 H   0  0  0  0  0  0  0  0  0  0  0  0
   -8.5217  -10.1323   -0.7870 H   0  0  0  0  0  0  0  0  0  0  0  0
  -11.2449  -14.2072   -1.2690 H   0  0  0  0  0  0  0  0  0  0  0  0
  -12.4913  -12.9539   -1.1314 H   0  0  0  0  0  0  0  0  0  0  0  0
  -11.9847  -13.9859    1.1064 H   0  0  0  0  0  0  0  0  0  0  0  0
  -10.2897  -13.5087    0.9351 H   0  0  0  0  0  0  0  0  0  0  0  0
  -11.5445  -12.2762    1.0956 H   0  0  0  0  0  0  0  0  0  0  0  0
  -13.0450   -8.4083    0.0858 H   0  0  0  0  0  0  0  0  0  0  0  0
  -12.5844   -8.5040    2.5247 H   0  0  0  0  0  0  0  0  0  0  0  0
  -13.8212   -7.4524    4.5584 H   0  0  0  0  0  0  0  0  0  0  0  0
  1  2  2  0  0  0  0
  2  3  1  0  0  0  0
  3  4  2  0  0  0  0
  4  5  1  0  0  0  0
  5  6  2  0  0  0  0
  6  7  1  0  0  0  0
  7  8  2  0  0  0  0
  8  9  1  0  0  0  0
  9 10  1  0  0  0  0
 10 11  1  0  0  0  0
  8 12  1  0  0  0  0
 12 13  1  0  0  0  0
 12 14  2  0  0  0  0
  4 15  1  0  0  0  0
 15 16  2  0  0  0  0
 16 17  1  0  0  0  0
 17 18  1  0  0  0  0
 18 19  2  0  0  0  0
 19 20  1  0  0  0  0
 20 21  2  0  0  0  0
 21 22  1  0  0  0  0
 22 23  1  0  0  0  0
 23 24  1  0  0  0  0
 21 25  1  0  0  0  0
 25 26  2  0  0  0  0
 25 27  1  0  0  0  0
 17 28  2  0  0  0  0
 28 29  1  0  0  0  0
 16 30  1  0  0  0  0
 30 31  2  0  0  0  0
 31 32  1  0  0  0  0
 31 33  1  0  0  0  0
 33 34  2  0  0  0  0
 34 35  1  0  0  0  0
 35 36  2  0  0  0  0
 36 37  1  0  0  0  0
 37 38  1  0  0  0  0
 37 39  2  0  0  0  0
 39 40  1  0  0  0  0
 36 41  1  0  0  0  0
 41 42  2  0  0  0  0
 42 43  1  0  0  0  0
 43 44  2  0  0  0  0
 44 45  1  0  0  0  0
 45 46  1  0  0  0  0
 45 47  2  0  0  0  0
 47 48  1  0  0  0  0
 44 49  1  0  0  0  0
 49 50  2  0  0  0  0
 50 51  1  0  0  0  0
 51 52  2  0  0  0  0
 52 53  1  0  0  0  0
 53 54  2  0  0  0  0
 54 55  1  0  0  0  0
 55 56  2  0  0  0  0
 56 57  1  0  0  0  0
 57 58  1  0  0  0  0
 58 59  1  0  0  0  0
 56 60  1  0  0  0  0
 60 61  1  0  0  0  0
 60 62  2  0  0  0  0
 52 63  1  0  0  0  0
 63 64  2  0  0  0  0
 64 65  1  0  0  0  0
 65 66  1  0  0  0  0
 66 67  2  0  0  0  0
 67 68  1  0  0  0  0
 68 69  2  0  0  0  0
 69 70  1  0  0  0  0
 70 71  1  0  0  0  0
 71 72  1  0  0  0  0
 69 73  1  0  0  0  0
 73 74  2  0  0  0  0
 73 75  1  0  0  0  0
 65 76  2  0  0  0  0
 76 77  1  0  0  0  0
 64 78  1  0  0  0  0
 78 79  2  0  0  0  0
 79 80  1  0  0  0  0
 79 81  1  0  0  0  0
 81 82  2  0  0  0  0
 82 83  1  0  0  0  0
 83 84  2  0  0  0  0
 84 85  1  0  0  0  0
 85 86  2  0  0  0  0
 86 87  1  0  0  0  0
 87 88  2  0  0  0  0
 88 89  1  0  0  0  0
 89 90  1  0  0  0  0
 90 91  1  0  0  0  0
 88 92  1  0  0  0  0
 92 93  1  0  0  0  0
 92 94  2  0  0  0  0
 84 95  1  0  0  0  0
 95 96  2  0  0  0  0
 96 97  1  0  0  0  0
 97 98  1  0  0  0  0
 98 99  2  0  0  0  0
 99100  1  0  0  0  0
100101  2  0  0  0  0
101102  1  0  0  0  0
102103  1  0  0  0  0
103104  1  0  0  0  0
101105  1  0  0  0  0
105106  2  0  0  0  0
105107  1  0  0  0  0
 97108  2  0  0  0  0
108109  1  0  0  0  0
 96110  1  0  0  0  0
110111  2  0  0  0  0
111112  1  0  0  0  0
111113  1  0  0  0  0
113114  2  0  0  0  0
114115  1  0  0  0  0
115116  2  0  0  0  0
116117  1  0  0  0  0
117118  2  0  0  0  0
118119  1  0  0  0  0
119120  2  0  0  0  0
120121  1  0  0  0  0
121122  1  0  0  0  0
122123  1  0  0  0  0
120124  1  0  0  0  0
124125  1  0  0  0  0
124126  2  0  0  0  0
116127  1  0  0  0  0
127128  2  0  0  0  0
128129  1  0  0  0  0
129130  1  0  0  0  0
130131  2  0  0  0  0
131132  1  0  0  0  0
132133  2  0  0  0  0
133134  1  0  0  0  0
134135  1  0  0  0  0
135136  1  0  0  0  0
133137  1  0  0  0  0
137138  2  0  0  0  0
137139  1  0  0  0  0
129140  2  0  0  0  0
140141  1  0  0  0  0
128142  1  0  0  0  0
142143  2  0  0  0  0
143144  1  0  0  0  0
 29  1  1  0  0  0  0
 39 33  1  0  0  0  0
 47 41  1  0  0  0  0
 77 49  1  0  0  0  0
109 81  1  0  0  0  0
141113  1  0  0  0  0
 28  3  1  0  0  0  0
 76 51  1  0  0  0  0
108 83  1  0  0  0  0
140115  1  0  0  0  0
 14  5  1  0  0  0  0
 32 15  1  0  0  0  0
 62 53  1  0  0  0  0
 80 63  1  0  0  0  0
 94 85  1  0  0  0  0
112 95  1  0  0  0  0
126117  1  0  0  0  0
144127  1  0  0  0  0
 26 18  1  0  0  0  0
 74 66  1  0  0  0  0
106 98  1  0  0  0  0
138130  1  0  0  0  0
  1145  1  0  0  0  0
  2146  1  0  0  0  0
  6147  1  0  0  0  0
  7148  1  0  0  0  0
 10149  1  0  0  0  0
 10150  1  0  0  0  0
 11151  1  0  0  0  0
 11152  1  0  0  0  0
 11153  1  0  0  0  0
 14154  1  0  0  0  0
 19155  1  0  0  0  0
 20156  1  0  0  0  0
 23157  1  0  0  0  0
 23158  1  0  0  0  0
 24159  1  0  0  0  0
 24160  1  0  0  0  0
 24161  1  0  0  0  0
 26162  1  0  0  0  0
 30163  1  0  0  0  0
 34164  1  0  0  0  0
 35165  1  0  0  0  0
 42166  1  0  0  0  0
 43167  1  0  0  0  0
 50168  1  0  0  0  0
 54169  1  0  0  0  0
 55170  1  0  0  0  0
 58171  1  0  0  0  0
 58172  1  0  0  0  0
 59173  1  0  0  0  0
 59174  1  0  0  0  0
 59175  1  0  0  0  0
 62176  1  0  0  0  0
 67177  1  0  0  0  0
 68178  1  0  0  0  0
 71179  1  0  0  0  0
 71180  1  0  0  0  0
 72181  1  0  0  0  0
 72182  1  0  0  0  0
 72183  1  0  0  0  0
 74184  1  0  0  0  0
 78185  1  0  0  0  0
 82186  1  0  0  0  0
 86187  1  0  0  0  0
 87188  1  0  0  0  0
 90189  1  0  0  0  0
 90190  1  0  0  0  0
 91191  1  0  0  0  0
 91192  1  0  0  0  0
 91193  1  0  0  0  0
 94194  1  0  0  0  0
 99195  1  0  0  0  0
100196  1  0  0  0  0
103197  1  0  0  0  0
103198  1  0  0  0  0
104199  1  0  0  0  0
104200  1  0  0  0  0
104201  1  0  0  0  0
106202  1  0  0  0  0
110203  1  0  0  0  0
114204  1  0  0  0  0
118205  1  0  0  0  0
119206  1  0  0  0  0
122207  1  0  0  0  0
122208  1  0  0  0  0
123209  1  0  0  0  0
123210  1  0  0  0  0
123211  1  0  0  0  0
126212  1  0  0  0  0
131213  1  0  0  0  0
132214  1  0  0  0  0
135215  1  0  0  0  0
135216  1  0  0  0  0
136217  1  0  0  0  0
136218  1  0  0  0  0
136219  1  0  0  0  0
138220  1  0  0  0  0
142221  1  0  0  0  0
143222  1  0  0  0  0
M  END
