267

C          4.52180       -4.29270        7.13680
C          4.37310       -3.66830        5.95080
C          3.00950       -3.40330        5.62370
C          2.49160       -2.80460        4.46060
C          3.39250       -2.27040        3.43260
C          3.21130       -2.56190        2.08160
C          4.10910       -2.11210        1.13720
C          5.22060       -1.35050        1.49190
S          6.27840       -0.80440        0.18320
C          7.96850       -0.92030        0.88000
C          8.28970       -2.31380        1.37930
C          5.36700       -1.03330        2.83880
F          6.39840       -0.26850        3.26310
C          4.48050       -1.48030        3.79620
C          1.10910       -2.77550        4.34450
C          0.23840       -3.28280        5.34120
C          0.75550       -3.84840        6.51850
C         -0.12840       -4.34960        7.57570
C         -1.21350       -5.18030        7.29020
C         -2.06530       -5.59880        8.28950
C         -1.87630       -5.20890        9.61610
S         -3.08370       -5.73910       10.78920
C         -2.13090       -6.06490       12.31910
C         -1.03820       -7.09160       12.10040
C         -0.78860       -4.38300        9.88770
C          0.08070       -3.96930        8.89870
F         -0.55820       -3.92350       11.13800
C          2.13810       -3.88860        6.62780
S          3.02800       -4.60640        7.94600
C         -1.12460       -3.08170        5.01720
C         -1.32880       -2.45580        3.82130
S          0.19750       -2.08860        3.02450
C         -2.54400       -2.07000        3.19250
S         -2.49270       -0.94450        1.88980
C         -4.20350       -1.00390        1.63880
C         -4.81200       -1.84920        2.56110
C         -3.86680       -2.46570        3.45140
C         -4.34040       -3.37100        4.40960
C         -5.69020       -3.60430        4.50660
N         -6.15870       -4.51690        5.50500
O         -7.34080       -4.78930        5.52370
O         -5.33870       -4.96650        6.28760
C         -6.62910       -2.96610        3.66360
C         -6.19530       -2.10740        2.70220
C         -4.74510       -0.35880        0.48380
C         -5.68420       -0.83690       -0.38740
C         -5.73190       -0.12470       -1.61490
C         -6.34920       -0.53270       -2.81300
C         -7.23360       -1.70430       -2.82710
C         -8.31180       -1.78080       -1.94610
C         -9.15560       -2.86960       -1.96390
C         -8.94820       -3.93370       -2.84100
S        -10.07530       -5.29040       -2.73200
C        -10.27740       -5.86390       -4.45850
C        -10.77700       -4.76110       -5.36980
C         -7.84380       -3.86050       -3.68560
F         -7.54750       -4.87420       -4.52420
C         -7.00710       -2.76260       -3.69930
C         -6.00160        0.16490       -3.96040
C         -5.15830        1.30430       -3.93220
C         -4.55640        1.72260       -2.73840
C         -3.52150        2.76850       -2.69830
C         -2.32700        2.59250       -3.39080
C         -1.30130        3.51080       -3.28280
C         -1.43840        4.64170       -2.48440
S         -0.18970        5.85950       -2.24510
C          1.34840        4.96860       -2.65880
C          1.62380        3.82040       -1.70700
C         -2.65840        4.82280       -1.83070
C         -3.68300        3.90550       -1.91340
F         -2.84180        5.92750       -1.08070
C         -4.83480        0.97110       -1.61370
S         -3.96350        1.09830       -0.10990
C         -4.84410        1.77190       -5.22540
C         -5.32390        0.97830       -6.23190
S         -6.37280       -0.28240       -5.61330
C         -4.63750        0.91170       -7.49130
C         -3.73940        1.85230       -7.91040
C         -2.58180        1.29400       -8.50970
C         -1.33550        1.94790       -8.53520
C         -1.28530        3.39170       -8.25560
C         -1.94180        4.31770       -9.06370
C         -1.98220        5.65070       -8.71220
C         -1.37110        6.11910       -7.54820
S         -1.50520        7.84430       -7.19680
C         -1.60300        7.94430       -5.36960
C         -2.76140        7.14700       -4.80630
C         -0.68300        5.18790       -6.77790
F         -0.01540        5.55450       -5.66120
C         -0.65560        3.84850       -7.10380
C         -0.22710        1.12000       -8.49460
C         -0.32110       -0.28900       -8.59880
C         -1.56060       -0.92150       -8.82620
C         -1.59010       -2.36560       -9.07340
C         -0.69760       -2.89620      -10.00920
C         -0.70420       -4.23910      -10.30900
C         -1.58070       -5.12190       -9.67620
S         -1.44690       -6.82310      -10.12630
C         -3.13900       -7.50180       -9.96540
C         -4.13210       -6.77340      -10.84820
C         -2.43280       -4.58740       -8.71380
C         -2.45690       -3.23750       -8.42430
F         -3.27300       -5.37810       -8.01450
C         -2.67720       -0.11320       -8.65350
S         -4.27180       -0.66870       -8.17980
C          0.80140       -0.93340       -8.00450
C          1.69370       -0.06700       -7.45050
S          1.35990        1.60190       -7.92730
C          2.34530       -0.24840       -6.17580
C          1.61990       -0.75980       -5.13860
C          2.15330       -0.46640       -3.86050
C          1.52280       -0.66160       -2.61830
C          0.28240       -1.43910       -2.52120
C         -0.82050       -0.98020       -1.80270
C         -1.97730       -1.73000       -1.73100
C         -2.07330       -2.96390       -2.36230
S         -3.53590       -3.96160       -2.30120
C         -3.90590       -3.94030       -0.51120
C         -2.75340       -4.46020        0.32430
C         -0.97110       -3.40710       -3.08930
F         -1.02030       -4.59200       -3.72340
C          0.19110       -2.66980       -3.16990
C          2.12490       -0.06100       -1.52380
C          3.35920        0.63220       -1.61230
C          4.02030        0.76850       -2.84580
C          5.34700        1.38920       -2.93090
C          6.38350        0.70950       -3.56910
C          7.66590        1.21410       -3.56140
C          7.96210        2.42160       -2.93500
S          9.64290        2.97800       -2.93540
C          9.88680        3.47780       -1.18830
C          9.58400        2.34480       -0.22940
C          6.90510        3.12600       -2.36790
C          5.62120        2.62170       -2.34650
F          7.10760        4.33830       -1.80590
C          3.36750        0.25390       -3.95700
S          3.81070        0.53210       -5.62920
C          3.77190        1.11930       -0.34800
C          2.90490        0.83440        0.66270
S          1.51650       -0.07790        0.11380
C          3.05840        1.20240        2.03060
C          2.29050        0.86800        3.10450
C          2.77810        1.38290        4.33510
C          2.23460        1.24360        5.62390
C          0.93420        0.60930        5.86880
C          0.74470       -0.26660        6.93410
C         -0.50310       -0.77450        7.23860
C         -1.61360       -0.44360        6.47110
S         -3.25110       -1.03930        6.72770
C         -3.12250       -1.98430        8.29190
C         -4.44410       -2.66710        8.58450
C         -1.40630        0.41620        5.39080
F         -2.46130        0.75320        4.61630
C         -0.17240        0.94170        5.08570
C          2.95780        1.81640        6.66620
C          4.14530        2.56310        6.47330
C          4.66380        2.73710        5.18420
C          5.82930        3.58560        4.90280
C          5.87160        4.90570        5.34750
C          6.91040        5.73580        4.98150
C          7.94760        5.27900        4.17330
S          9.22450        6.41870        3.71650
C          9.35610        6.14740        1.90790
C          8.02540        6.33510        1.20780
C          7.92270        3.94240        3.78920
C          6.87940        3.10570        4.12650
F          8.93230        3.42070        3.05700
C          3.97800        2.11530        4.15230
S          4.43100        2.19510        2.47390
C          4.66620        3.06480        7.70320
C          3.90220        2.74190        8.76490
S          2.50840        1.80190        8.35430
H          5.43410       -4.60280        7.60780
H          5.19760       -3.42590        5.30610
H          2.37860       -3.17280        1.77040
H          3.96940       -2.35420        0.09480
H          8.59810       -0.65400        0.03130
H          8.08620       -0.16860        1.65730
H          9.32890       -2.35490        1.69860
H          7.66010       -2.58010        2.22620
H          8.13620       -3.04740        0.59070
H          4.63150       -1.17810        4.82140
H         -1.37060       -5.52470        6.27970
H         -2.90990       -6.22760        8.05630
H         -1.73920       -5.12610       12.70400
H         -2.89050       -6.44000       13.00500
H         -1.45310       -8.00950       11.68930
H         -0.28190       -6.71570       11.41390
H         -0.55630       -7.31930       13.04890
H          0.89490       -3.31540        9.17050
H         -1.91430       -3.34040        5.69280
H         -3.67630       -3.90330        5.06830
H         -7.67620       -3.17960        3.80760
H         -6.89370       -1.60160        2.05550
H         -6.24940       -1.73520       -0.21440
H         -8.50370       -0.96330       -1.26740
H        -10.00070       -2.91830       -1.29490
H         -9.33720       -6.28640       -4.80530
H        -11.01400       -6.66230       -4.36710
H        -10.03940       -3.96590       -5.45930
H        -11.70080       -4.33490       -4.98360
H        -10.96590       -5.16550       -6.36210
H         -6.15940       -2.77010       -4.36560
H         -2.18950        1.70970       -3.99870
H         -0.38620        3.34010       -3.82560
H          1.29670        4.64730       -3.69710
H          2.11670        5.73700       -2.57570
H          2.52860        3.29930       -2.01310
H          0.80520        3.10280       -1.70550
H          1.75630        4.18940       -0.69230
H         -4.59730        4.08230       -1.36890
H         -4.17320        2.59410       -5.39290
H         -3.80600        2.89120       -7.64260
H         -2.43200        3.98380       -9.96560
H         -2.50370        6.36250       -9.33300
H         -0.65240        7.63710       -4.94020
H         -1.74180        9.01080       -5.19270
H         -2.63020        6.08110       -4.98750
H         -3.70050        7.46210       -5.25640
H         -2.81600        7.30480       -3.73130
H         -0.14770        3.16770       -6.43990
H         -0.01370       -2.23670      -10.52180
H         -0.02550       -4.63740      -11.04700
H         -3.01720       -8.53760      -10.28350
H         -3.43160       -7.48440       -8.91820
H         -5.10090       -7.26490      -10.78850
H         -4.25320       -5.74040      -10.52870
H         -3.79930       -6.77910      -11.88430
H         -3.13270       -2.89800       -7.65630
H          0.84540       -1.99730       -7.85330
H          0.66300       -1.22770       -5.28520
H         -0.78820       -0.01740       -1.31690
H         -2.82430       -1.35040       -1.18360
H         -4.18370       -2.92870       -0.22570
H         -4.77970       -4.58550       -0.42260
H         -1.89420       -3.79460        0.25260
H         -2.45560       -5.45040       -0.01260
H         -3.05680       -4.52350        1.36820
H          1.03020       -3.07340       -3.71530
H          6.18660       -0.24270       -4.03680
H          8.47090        0.67010       -4.03020
H          9.27790        4.35580       -0.98590
H         10.93890        3.75860       -1.14970
H          8.53420        2.06120       -0.28460
H         10.19290        1.47460       -0.46630
H          9.80100        2.65350        0.79040
H          4.84330        3.21680       -1.89380
H          4.68920        1.65280       -0.18330
H          1.41750        0.24820        3.01410
H          1.58880       -0.57010        7.53370
H         -0.60380       -1.43360        8.08400
H         -2.33290       -2.72410        8.17410
H         -2.85990       -1.27590        9.07810
H         -4.65800       -3.43050        7.84010
H         -4.39380       -3.15260        9.55650
H         -5.25790       -1.94580        8.59590
H         -0.08760        1.63360        4.26260
H          5.06110        5.29310        5.94600
H          6.92740        6.76550        5.30300
H          9.77630        5.15960        1.73050
H         10.07780        6.90100        1.59330
H          8.15850        6.26270        0.13050
H          7.60720        7.31230        1.43970
H          7.31200        5.57200        1.51460
H          6.90880        2.07880        3.80030
H          5.57840        3.62970        7.76840
H          4.06440        2.98910        9.79580
