74

C         14.64920       -2.59710       -1.68110
C         13.29530       -2.70180       -1.62100
C         12.74880       -2.57030       -0.30750
C         13.71900       -2.35110        0.73070
O         13.61910       -2.20180        1.91040
S         15.36070       -2.33170       -0.13820
C         11.37510       -2.69140       -0.42290
O         11.03000       -2.89220       -1.71450
C         12.16740       -2.91220       -2.52840
O         12.10900       -3.07490       -3.70680
C         10.36730       -2.62390        0.56570
C          8.99910       -2.71910        0.38110
C          8.23880       -2.58060        1.56490
C          8.99980       -2.37790        2.77160
O          8.66110       -2.23490        3.90820
S         10.76520       -2.36990        2.25230
C          6.89460       -2.65740        1.20860
O          6.78260       -2.85200       -0.12070
C          8.04790       -2.90520       -0.72020
O          8.18450       -3.07390       -1.88890
C          5.73520       -2.53030        1.99590
C          4.42070       -2.52030        1.55140
C          3.46370       -2.30550        2.56470
C          3.99240       -2.16200        3.89880
O          3.45010       -1.98670        4.94900
S          5.81770       -2.30060        3.73160
C          2.21200       -2.24690        1.95130
O          2.34400       -2.44240        0.62360
C          3.69030       -2.62300        0.28320
O          4.03620       -2.81340       -0.83830
C          0.94440       -1.97440        2.49200
C         -0.24160       -1.80350        1.79010
C         -1.34480       -1.44350        2.58990
C         -1.08250       -1.34430        4.00420
O         -1.80010       -1.07600        4.92210
S          0.70150       -1.72590        4.21100
C         -2.42820       -1.23010        1.73620
O         -2.05810       -1.46870        0.46060
C         -0.70740       -1.83380        0.40010
O         -0.17260       -2.09070       -0.63070
C         -3.72990       -0.78350        2.00980
C         -4.72330       -0.48920        1.08710
C         -5.91580        0.02720        1.64460
C         -5.91850        0.12090        3.08210
O         -6.77350        0.47180        3.84870
S         -4.27830       -0.45330        3.64310
C         -6.76060        0.36600        0.58340
O         -6.16970        0.03160       -0.58230
C         -4.89380       -0.50600       -0.36150
O         -4.21160       -0.85860       -1.27260
C         -8.07270        0.90550        0.58510
C         -8.88250        0.72430        1.69550
S        -10.51220        1.07970        1.42690
C        -10.17040        1.55620       -0.21650
C         -8.80270        1.47940       -0.52900
C         -8.34210        2.00820       -1.75540
C         -6.88730        2.26570       -1.99340
C         -9.26590        2.38590       -2.72640
C         -8.79960        2.83940       -4.07600
C        -10.64330        2.37290       -2.43750
C        -11.08830        1.99940       -1.15400
S        -12.80450        2.15830       -0.97730
C        -12.92870        2.71000       -2.61200
C        -11.74430        2.77400       -3.25420
H         15.27150       -2.66100       -2.55370
H         -8.57090        0.34040        2.64870
H         -6.36840        2.41810       -1.05100
H         -6.76320        3.16450       -2.59210
H         -6.41150        1.43870       -2.51810
H         -8.49640        3.88660       -4.04490
H         -7.94950        2.24870       -4.40710
H         -9.59120        2.74030       -4.81150
H        -13.89880        2.95870       -2.99550
H        -11.65340        3.10550       -4.27190
