
  xtb     02282216253D
 energy: -178.779255367259 gnorm: 0.000359000371 xtb: 6.4.1 (unknown)
 74 86  0     0  0            999 V2000
   14.6492   -2.5971   -1.6811 C   0  0  0  0  0  0  0  0  0  0  0  0
   13.2953   -2.7018   -1.6210 C   0  0  0  0  0  0  0  0  0  0  0  0
   12.7488   -2.5703   -0.3075 C   0  0  0  0  0  0  0  0  0  0  0  0
   13.7190   -2.3511    0.7307 C   0  0  0  0  0  0  0  0  0  0  0  0
   13.6191   -2.2018    1.9104 O   0  0  0  0  0  0  0  0  0  0  0  0
   15.3607   -2.3317   -0.1382 S   0  0  0  0  0  0  0  0  0  0  0  0
   11.3751   -2.6914   -0.4229 C   0  0  0  0  0  0  0  0  0  0  0  0
   11.0300   -2.8922   -1.7145 O   0  0  0  0  0  0  0  0  0  0  0  0
   12.1674   -2.9122   -2.5284 C   0  0  0  0  0  0  0  0  0  0  0  0
   12.1090   -3.0749   -3.7068 O   0  0  0  0  0  0  0  0  0  0  0  0
   10.3673   -2.6239    0.5657 C   0  0  0  0  0  0  0  0  0  0  0  0
    8.9991   -2.7191    0.3811 C   0  0  0  0  0  0  0  0  0  0  0  0
    8.2388   -2.5806    1.5649 C   0  0  0  0  0  0  0  0  0  0  0  0
    8.9998   -2.3779    2.7716 C   0  0  0  0  0  0  0  0  0  0  0  0
    8.6611   -2.2349    3.9082 O   0  0  0  0  0  0  0  0  0  0  0  0
   10.7652   -2.3699    2.2523 S   0  0  0  0  0  0  0  0  0  0  0  0
    6.8946   -2.6574    1.2086 C   0  0  0  0  0  0  0  0  0  0  0  0
    6.7826   -2.8520   -0.1207 O   0  0  0  0  0  0  0  0  0  0  0  0
    8.0479   -2.9052   -0.7202 C   0  0  0  0  0  0  0  0  0  0  0  0
    8.1845   -3.0739   -1.8889 O   0  0  0  0  0  0  0  0  0  0  0  0
    5.7352   -2.5303    1.9959 C   0  0  0  0  0  0  0  0  0  0  0  0
    4.4207   -2.5203    1.5514 C   0  0  0  0  0  0  0  0  0  0  0  0
    3.4637   -2.3055    2.5647 C   0  0  0  0  0  0  0  0  0  0  0  0
    3.9924   -2.1620    3.8988 C   0  0  0  0  0  0  0  0  0  0  0  0
    3.4501   -1.9867    4.9490 O   0  0  0  0  0  0  0  0  0  0  0  0
    5.8177   -2.3006    3.7316 S   0  0  0  0  0  0  0  0  0  0  0  0
    2.2120   -2.2469    1.9513 C   0  0  0  0  0  0  0  0  0  0  0  0
    2.3440   -2.4424    0.6236 O   0  0  0  0  0  0  0  0  0  0  0  0
    3.6903   -2.6230    0.2832 C   0  0  0  0  0  0  0  0  0  0  0  0
    4.0362   -2.8134   -0.8383 O   0  0  0  0  0  0  0  0  0  0  0  0
    0.9444   -1.9744    2.4920 C   0  0  0  0  0  0  0  0  0  0  0  0
   -0.2416   -1.8035    1.7901 C   0  0  0  0  0  0  0  0  0  0  0  0
   -1.3448   -1.4435    2.5899 C   0  0  0  0  0  0  0  0  0  0  0  0
   -1.0825   -1.3443    4.0042 C   0  0  0  0  0  0  0  0  0  0  0  0
   -1.8001   -1.0760    4.9221 O   0  0  0  0  0  0  0  0  0  0  0  0
    0.7015   -1.7259    4.2110 S   0  0  0  0  0  0  0  0  0  0  0  0
   -2.4282   -1.2301    1.7362 C   0  0  0  0  0  0  0  0  0  0  0  0
   -2.0581   -1.4687    0.4606 O   0  0  0  0  0  0  0  0  0  0  0  0
   -0.7074   -1.8338    0.4001 C   0  0  0  0  0  0  0  0  0  0  0  0
   -0.1726   -2.0907   -0.6307 O   0  0  0  0  0  0  0  0  0  0  0  0
   -3.7299   -0.7835    2.0098 C   0  0  0  0  0  0  0  0  0  0  0  0
   -4.7233   -0.4892    1.0871 C   0  0  0  0  0  0  0  0  0  0  0  0
   -5.9158    0.0272    1.6446 C   0  0  0  0  0  0  0  0  0  0  0  0
   -5.9185    0.1209    3.0821 C   0  0  0  0  0  0  0  0  0  0  0  0
   -6.7735    0.4718    3.8487 O   0  0  0  0  0  0  0  0  0  0  0  0
   -4.2783   -0.4533    3.6431 S   0  0  0  0  0  0  0  0  0  0  0  0
   -6.7606    0.3660    0.5834 C   0  0  0  0  0  0  0  0  0  0  0  0
   -6.1697    0.0316   -0.5823 O   0  0  0  0  0  0  0  0  0  0  0  0
   -4.8938   -0.5060   -0.3615 C   0  0  0  0  0  0  0  0  0  0  0  0
   -4.2116   -0.8586   -1.2726 O   0  0  0  0  0  0  0  0  0  0  0  0
   -8.0727    0.9055    0.5851 C   0  0  0  0  0  0  0  0  0  0  0  0
   -8.8825    0.7243    1.6955 C   0  0  0  0  0  0  0  0  0  0  0  0
  -10.5122    1.0797    1.4269 S   0  0  0  0  0  0  0  0  0  0  0  0
  -10.1704    1.5562   -0.2165 C   0  0  0  0  0  0  0  0  0  0  0  0
   -8.8027    1.4794   -0.5290 C   0  0  0  0  0  0  0  0  0  0  0  0
   -8.3421    2.0082   -1.7554 C   0  0  0  0  0  0  0  0  0  0  0  0
   -6.8873    2.2657   -1.9934 C   0  0  0  0  0  0  0  0  0  0  0  0
   -9.2659    2.3859   -2.7264 C   0  0  0  0  0  0  0  0  0  0  0  0
   -8.7996    2.8394   -4.0760 C   0  0  0  0  0  0  0  0  0  0  0  0
  -10.6433    2.3729   -2.4375 C   0  0  0  0  0  0  0  0  0  0  0  0
  -11.0883    1.9994   -1.1540 C   0  0  0  0  0  0  0  0  0  0  0  0
  -12.8045    2.1583   -0.9773 S   0  0  0  0  0  0  0  0  0  0  0  0
  -12.9287    2.7100   -2.6120 C   0  0  0  0  0  0  0  0  0  0  0  0
  -11.7443    2.7740   -3.2542 C   0  0  0  0  0  0  0  0  0  0  0  0
   15.2715   -2.6610   -2.5537 H   0  0  0  0  0  0  0  0  0  0  0  0
   -8.5709    0.3404    2.6487 H   0  0  0  0  0  0  0  0  0  0  0  0
   -6.3684    2.4181   -1.0510 H   0  0  0  0  0  0  0  0  0  0  0  0
   -6.7632    3.1645   -2.5921 H   0  0  0  0  0  0  0  0  0  0  0  0
   -6.4115    1.4387   -2.5181 H   0  0  0  0  0  0  0  0  0  0  0  0
   -8.4964    3.8866   -4.0449 H   0  0  0  0  0  0  0  0  0  0  0  0
   -7.9495    2.2487   -4.4071 H   0  0  0  0  0  0  0  0  0  0  0  0
   -9.5912    2.7403   -4.8115 H   0  0  0  0  0  0  0  0  0  0  0  0
  -13.8988    2.9587   -2.9955 H   0  0  0  0  0  0  0  0  0  0  0  0
  -11.6534    3.1055   -4.2719 H   0  0  0  0  0  0  0  0  0  0  0  0
  1  2  2  0  0  0  0
  2  3  1  0  0  0  0
  3  4  1  0  0  0  0
  4  5  2  0  0  0  0
  4  6  1  0  0  0  0
  3  7  2  0  0  0  0
  7  8  1  0  0  0  0
  8  9  1  0  0  0  0
  9 10  2  0  0  0  0
  7 11  1  0  0  0  0
 11 12  2  0  0  0  0
 12 13  1  0  0  0  0
 13 14  1  0  0  0  0
 14 15  2  0  0  0  0
 14 16  1  0  0  0  0
 13 17  2  0  0  0  0
 17 18  1  0  0  0  0
 18 19  1  0  0  0  0
 19 20  2  0  0  0  0
 17 21  1  0  0  0  0
 21 22  2  0  0  0  0
 22 23  1  0  0  0  0
 23 24  1  0  0  0  0
 24 25  2  0  0  0  0
 24 26  1  0  0  0  0
 23 27  2  0  0  0  0
 27 28  1  0  0  0  0
 28 29  1  0  0  0  0
 29 30  2  0  0  0  0
 27 31  1  0  0  0  0
 31 32  2  0  0  0  0
 32 33  1  0  0  0  0
 33 34  1  0  0  0  0
 34 35  2  0  0  0  0
 34 36  1  0  0  0  0
 33 37  2  0  0  0  0
 37 38  1  0  0  0  0
 38 39  1  0  0  0  0
 39 40  2  0  0  0  0
 37 41  1  0  0  0  0
 41 42  2  0  0  0  0
 42 43  1  0  0  0  0
 43 44  1  0  0  0  0
 44 45  2  0  0  0  0
 44 46  1  0  0  0  0
 43 47  2  0  0  0  0
 47 48  1  0  0  0  0
 48 49  1  0  0  0  0
 49 50  2  0  0  0  0
 47 51  1  0  0  0  0
 51 52  2  0  0  0  0
 52 53  1  0  0  0  0
 53 54  1  0  0  0  0
 54 55  2  0  0  0  0
 55 56  1  0  0  0  0
 56 57  1  0  0  0  0
 56 58  2  0  0  0  0
 58 59  1  0  0  0  0
 58 60  1  0  0  0  0
 60 61  2  0  0  0  0
 61 62  1  0  0  0  0
 62 63  1  0  0  0  0
 63 64  2  0  0  0  0
  6  1  1  0  0  0  0
 16 11  1  0  0  0  0
 26 21  1  0  0  0  0
 36 31  1  0  0  0  0
 46 41  1  0  0  0  0
 55 51  1  0  0  0  0
 64 60  1  0  0  0  0
  9  2  1  0  0  0  0
 19 12  1  0  0  0  0
 29 22  1  0  0  0  0
 39 32  1  0  0  0  0
 49 42  1  0  0  0  0
 61 54  1  0  0  0  0
  1 65  1  0  0  0  0
 52 66  1  0  0  0  0
 57 67  1  0  0  0  0
 57 68  1  0  0  0  0
 57 69  1  0  0  0  0
 59 70  1  0  0  0  0
 59 71  1  0  0  0  0
 59 72  1  0  0  0  0
 63 73  1  0  0  0  0
 64 74  1  0  0  0  0
M  END
