
  xtb     03042209553D
 energy: -404.978271861644 gnorm: 0.000265831925 xtb: 6.4.1 (unknown)
230253  0     0  0            999 V2000
    6.1746   -9.3633    8.6120 C   0  0  0  0  0  0  0  0  0  0  0  0
    6.2896   -8.1178    9.1146 C   0  0  0  0  0  0  0  0  0  0  0  0
    5.4235   -7.1788    8.4785 C   0  0  0  0  0  0  0  0  0  0  0  0
    5.3142   -5.8003    8.7164 C   0  0  0  0  0  0  0  0  0  0  0  0
    6.0863   -5.1329    9.7717 C   0  0  0  0  0  0  0  0  0  0  0  0
    6.8287   -3.9888    9.4978 C   0  0  0  0  0  0  0  0  0  0  0  0
    7.5529   -3.3492   10.4855 C   0  0  0  0  0  0  0  0  0  0  0  0
    7.5543   -3.8305   11.7900 C   0  0  0  0  0  0  0  0  0  0  0  0
    8.4266   -3.1199   13.1406 S   0  0  0  0  0  0  0  0  0  0  0  0
    9.2163   -1.6385   12.4078 C   0  0  0  0  0  0  0  0  0  0  0  0
    9.9822   -0.9095   13.4957 C   0  0  0  0  0  0  0  0  0  0  0  0
    6.8007   -4.9777   12.0513 C   0  0  0  0  0  0  0  0  0  0  0  0
    6.7754   -5.4698   13.3071 F   0  0  0  0  0  0  0  0  0  0  0  0
    6.0796   -5.6261   11.0756 C   0  0  0  0  0  0  0  0  0  0  0  0
    4.4358   -5.0975    7.9049 C   0  0  0  0  0  0  0  0  0  0  0  0
    3.6653   -5.7084    6.8859 C   0  0  0  0  0  0  0  0  0  0  0  0
    3.7852   -7.0848    6.6378 C   0  0  0  0  0  0  0  0  0  0  0  0
    3.0501   -7.7199    5.5383 C   0  0  0  0  0  0  0  0  0  0  0  0
    3.0911   -7.1709    4.2567 C   0  0  0  0  0  0  0  0  0  0  0  0
    2.3927   -7.7496    3.2200 C   0  0  0  0  0  0  0  0  0  0  0  0
    1.6349   -8.9032    3.4137 C   0  0  0  0  0  0  0  0  0  0  0  0
    0.8134   -9.5756    1.9994 S   0  0  0  0  0  0  0  0  0  0  0  0
   -0.8086  -10.1253    2.6468 C   0  0  0  0  0  0  0  0  0  0  0  0
   -1.5699   -8.9902    3.3015 C   0  0  0  0  0  0  0  0  0  0  0  0
    1.6337   -9.4615    4.6883 C   0  0  0  0  0  0  0  0  0  0  0  0
    2.3145   -8.8820    5.7403 C   0  0  0  0  0  0  0  0  0  0  0  0
    0.9530  -10.6000    4.9439 F   0  0  0  0  0  0  0  0  0  0  0  0
    4.6567   -7.7895    7.4565 C   0  0  0  0  0  0  0  0  0  0  0  0
    5.0157   -9.4926    7.3338 S   0  0  0  0  0  0  0  0  0  0  0  0
    2.8044   -4.7800    6.2465 C   0  0  0  0  0  0  0  0  0  0  0  0
    2.9163   -3.5100    6.7263 C   0  0  0  0  0  0  0  0  0  0  0  0
    4.0937   -3.3890    8.0204 S   0  0  0  0  0  0  0  0  0  0  0  0
    2.2315   -2.3490    6.2613 C   0  0  0  0  0  0  0  0  0  0  0  0
    2.3924   -1.0588    6.6683 C   0  0  0  0  0  0  0  0  0  0  0  0
    1.5940   -0.1326    5.9497 C   0  0  0  0  0  0  0  0  0  0  0  0
    1.5818    1.2675    6.0738 C   0  0  0  0  0  0  0  0  0  0  0  0
    2.3849    1.9509    7.0940 C   0  0  0  0  0  0  0  0  0  0  0  0
    2.3339    1.5550    8.4300 C   0  0  0  0  0  0  0  0  0  0  0  0
    3.0732    2.2167    9.3866 C   0  0  0  0  0  0  0  0  0  0  0  0
    3.9009    3.2862    9.0513 C   0  0  0  0  0  0  0  0  0  0  0  0
    4.8421    4.0302   10.3520 S   0  0  0  0  0  0  0  0  0  0  0  0
    4.7263    5.8236   10.0008 C   0  0  0  0  0  0  0  0  0  0  0  0
    3.2882    6.2977    9.9423 C   0  0  0  0  0  0  0  0  0  0  0  0
    3.9608    3.6540    7.7107 C   0  0  0  0  0  0  0  0  0  0  0  0
    4.7746    4.6527    7.3038 F   0  0  0  0  0  0  0  0  0  0  0  0
    3.2071    3.0172    6.7462 C   0  0  0  0  0  0  0  0  0  0  0  0
    0.7683    1.9632    5.1924 C   0  0  0  0  0  0  0  0  0  0  0  0
   -0.0230    1.3195    4.2110 C   0  0  0  0  0  0  0  0  0  0  0  0
    0.0480   -0.0730    4.0316 C   0  0  0  0  0  0  0  0  0  0  0  0
   -0.5621   -0.7023    2.8543 C   0  0  0  0  0  0  0  0  0  0  0  0
   -1.2903   -1.8873    2.9185 C   0  0  0  0  0  0  0  0  0  0  0  0
   -1.8073   -2.4579    1.7709 C   0  0  0  0  0  0  0  0  0  0  0  0
   -1.6226   -1.8607    0.5317 C   0  0  0  0  0  0  0  0  0  0  0  0
   -2.3033   -2.5669   -0.9526 S   0  0  0  0  0  0  0  0  0  0  0  0
   -4.0832   -2.3560   -0.5681 C   0  0  0  0  0  0  0  0  0  0  0  0
   -4.4547   -0.8945   -0.4180 C   0  0  0  0  0  0  0  0  0  0  0  0
   -0.8781   -0.6891    0.4730 C   0  0  0  0  0  0  0  0  0  0  0  0
   -0.3514   -0.1119    1.6087 C   0  0  0  0  0  0  0  0  0  0  0  0
   -0.6700   -0.0814   -0.7107 F   0  0  0  0  0  0  0  0  0  0  0  0
    0.8237   -0.7711    4.9438 C   0  0  0  0  0  0  0  0  0  0  0  0
    1.0587   -2.4952    4.9676 S   0  0  0  0  0  0  0  0  0  0  0  0
   -0.8315    2.2394    3.5008 C   0  0  0  0  0  0  0  0  0  0  0  0
   -0.6287    3.5377    3.8623 C   0  0  0  0  0  0  0  0  0  0  0  0
    0.5551    3.7001    5.1354 S   0  0  0  0  0  0  0  0  0  0  0  0
   -1.2581    4.6556    3.2259 C   0  0  0  0  0  0  0  0  0  0  0  0
   -2.4938    4.4156    2.6795 O   0  0  0  0  0  0  0  0  0  0  0  0
   -2.7900    5.5111    1.9651 C   0  0  0  0  0  0  0  0  0  0  0  0
   -3.7442    6.0142    1.0787 C   0  0  0  0  0  0  0  0  0  0  0  0
   -3.2073    7.2110    0.6254 C   0  0  0  0  0  0  0  0  0  0  0  0
   -2.0006    7.4829    1.2177 O   0  0  0  0  0  0  0  0  0  0  0  0
   -1.7521    6.4460    2.0370 C   0  0  0  0  0  0  0  0  0  0  0  0
   -0.7687    5.9020    2.8795 C   0  0  0  0  0  0  0  0  0  0  0  0
   -3.6514    7.9706   -0.4966 C   0  0  0  0  0  0  0  0  0  0  0  0
   -4.9085    7.8718   -0.9834 C   0  0  0  0  0  0  0  0  0  0  0  0
   -5.3018    8.2128   -2.3082 C   0  0  0  0  0  0  0  0  0  0  0  0
   -6.6411    8.2223   -2.6051 O   0  0  0  0  0  0  0  0  0  0  0  0
   -6.7223    8.2976   -3.9417 C   0  0  0  0  0  0  0  0  0  0  0  0
   -7.6410    8.2799   -5.0049 C   0  0  0  0  0  0  0  0  0  0  0  0
   -6.8582    8.2515   -6.1409 C   0  0  0  0  0  0  0  0  0  0  0  0
   -5.5205    8.3041   -5.8443 O   0  0  0  0  0  0  0  0  0  0  0  0
   -5.4440    8.3315   -4.5071 C   0  0  0  0  0  0  0  0  0  0  0  0
   -4.5229    8.3033   -3.4547 C   0  0  0  0  0  0  0  0  0  0  0  0
   -7.2091    8.0839   -7.5360 C   0  0  0  0  0  0  0  0  0  0  0  0
   -6.6423    7.1468   -8.3139 C   0  0  0  0  0  0  0  0  0  0  0  0
   -5.8156    6.0588   -7.8637 C   0  0  0  0  0  0  0  0  0  0  0  0
   -4.9842    5.2995   -8.6328 C   0  0  0  0  0  0  0  0  0  0  0  0
   -4.3760    4.2197   -7.9411 C   0  0  0  0  0  0  0  0  0  0  0  0
   -3.4913    3.2510   -8.4451 C   0  0  0  0  0  0  0  0  0  0  0  0
   -3.1430    3.1657   -9.8680 C   0  0  0  0  0  0  0  0  0  0  0  0
   -1.8201    3.0136  -10.2824 C   0  0  0  0  0  0  0  0  0  0  0  0
   -1.5163    2.8445  -11.6145 C   0  0  0  0  0  0  0  0  0  0  0  0
   -2.5076    2.8341  -12.5968 C   0  0  0  0  0  0  0  0  0  0  0  0
   -1.9466    2.6296  -14.2601 S   0  0  0  0  0  0  0  0  0  0  0  0
   -3.3303    1.8505  -15.1698 C   0  0  0  0  0  0  0  0  0  0  0  0
   -3.6918    0.4890  -14.6120 C   0  0  0  0  0  0  0  0  0  0  0  0
   -3.8176    3.0347  -12.1734 C   0  0  0  0  0  0  0  0  0  0  0  0
   -4.8418    3.0897  -13.0566 F   0  0  0  0  0  0  0  0  0  0  0  0
   -4.1391    3.1800  -10.8384 C   0  0  0  0  0  0  0  0  0  0  0  0
   -2.9949    2.3301   -7.5335 C   0  0  0  0  0  0  0  0  0  0  0  0
   -3.3983    2.2854   -6.1775 C   0  0  0  0  0  0  0  0  0  0  0  0
   -4.3595    3.1909   -5.6989 C   0  0  0  0  0  0  0  0  0  0  0  0
   -4.9554    2.9872   -4.3727 C   0  0  0  0  0  0  0  0  0  0  0  0
   -5.4440    1.7168   -4.0587 C   0  0  0  0  0  0  0  0  0  0  0  0
   -6.0160    1.4628   -2.8345 C   0  0  0  0  0  0  0  0  0  0  0  0
   -6.1243    2.4600   -1.8655 C   0  0  0  0  0  0  0  0  0  0  0  0
   -6.9017    1.9812   -0.3505 S   0  0  0  0  0  0  0  0  0  0  0  0
   -6.0618    2.9451    0.9664 C   0  0  0  0  0  0  0  0  0  0  0  0
   -6.9257    4.0759    1.4899 C   0  0  0  0  0  0  0  0  0  0  0  0
   -5.6678    3.7290   -2.2053 C   0  0  0  0  0  0  0  0  0  0  0  0
   -5.0873    3.9997   -3.4308 C   0  0  0  0  0  0  0  0  0  0  0  0
   -5.7786    4.7558   -1.3314 F   0  0  0  0  0  0  0  0  0  0  0  0
   -4.7838    4.1723   -6.5832 C   0  0  0  0  0  0  0  0  0  0  0  0
   -5.9083    5.4491   -6.2188 S   0  0  0  0  0  0  0  0  0  0  0  0
   -2.7389    1.2538   -5.4571 C   0  0  0  0  0  0  0  0  0  0  0  0
   -1.9130    0.4961   -6.2274 C   0  0  0  0  0  0  0  0  0  0  0  0
   -1.8872    1.0332   -7.8991 S   0  0  0  0  0  0  0  0  0  0  0  0
   -1.1134   -0.6294   -5.8628 C   0  0  0  0  0  0  0  0  0  0  0  0
   -0.5844   -1.5335   -6.7328 C   0  0  0  0  0  0  0  0  0  0  0  0
    0.1648   -2.5561   -6.1026 C   0  0  0  0  0  0  0  0  0  0  0  0
    0.8063   -3.6428   -6.7169 C   0  0  0  0  0  0  0  0  0  0  0  0
    0.8538   -3.7266   -8.1806 C   0  0  0  0  0  0  0  0  0  0  0  0
    1.2738   -2.6206   -8.9171 C   0  0  0  0  0  0  0  0  0  0  0  0
    1.2692   -2.6347  -10.2965 C   0  0  0  0  0  0  0  0  0  0  0  0
    0.8274   -3.7539  -10.9931 C   0  0  0  0  0  0  0  0  0  0  0  0
    0.7214   -3.8661  -12.7485 S   0  0  0  0  0  0  0  0  0  0  0  0
    0.7240   -2.1222  -13.2980 C   0  0  0  0  0  0  0  0  0  0  0  0
   -0.5186   -1.3690  -12.8623 C   0  0  0  0  0  0  0  0  0  0  0  0
    0.4570   -4.8719  -10.2438 C   0  0  0  0  0  0  0  0  0  0  0  0
    0.0523   -5.9852  -10.8869 F   0  0  0  0  0  0  0  0  0  0  0  0
    0.4687   -4.8754   -8.8658 C   0  0  0  0  0  0  0  0  0  0  0  0
    1.4012   -4.5667   -5.8726 C   0  0  0  0  0  0  0  0  0  0  0  0
    1.4527   -4.4003   -4.4663 C   0  0  0  0  0  0  0  0  0  0  0  0
    0.8628   -3.2799   -3.8606 C   0  0  0  0  0  0  0  0  0  0  0  0
    1.0633   -3.0137   -2.4293 C   0  0  0  0  0  0  0  0  0  0  0  0
    1.6782   -1.8253   -2.0405 C   0  0  0  0  0  0  0  0  0  0  0  0
    2.0352   -1.6187   -0.7263 C   0  0  0  0  0  0  0  0  0  0  0  0
    1.7645   -2.5719    0.2508 C   0  0  0  0  0  0  0  0  0  0  0  0
    2.3202   -2.2353    1.8972 S   0  0  0  0  0  0  0  0  0  0  0  0
    2.9967   -3.8474    2.4432 C   0  0  0  0  0  0  0  0  0  0  0  0
    4.0487   -4.3800    1.4915 C   0  0  0  0  0  0  0  0  0  0  0  0
    1.0633   -3.7092   -0.1344 C   0  0  0  0  0  0  0  0  0  0  0  0
    0.7368   -3.9491   -1.4544 C   0  0  0  0  0  0  0  0  0  0  0  0
    0.6966   -4.6341    0.7819 F   0  0  0  0  0  0  0  0  0  0  0  0
    0.1979   -2.3946   -4.6964 C   0  0  0  0  0  0  0  0  0  0  0  0
   -0.7041   -0.9864   -4.1952 S   0  0  0  0  0  0  0  0  0  0  0  0
    2.2063   -5.4434   -3.8482 C   0  0  0  0  0  0  0  0  0  0  0  0
    2.6777   -6.3476   -4.7296 C   0  0  0  0  0  0  0  0  0  0  0  0
    2.2590   -6.0010   -6.3723 S   0  0  0  0  0  0  0  0  0  0  0  0
    6.7060  -10.2459    8.9102 H   0  0  0  0  0  0  0  0  0  0  0  0
    6.9750   -7.8529    9.8988 H   0  0  0  0  0  0  0  0  0  0  0  0
    6.8593   -3.6005    8.4913 H   0  0  0  0  0  0  0  0  0  0  0  0
    8.1195   -2.4700   10.2274 H   0  0  0  0  0  0  0  0  0  0  0  0
    9.8880   -1.9710   11.6161 H   0  0  0  0  0  0  0  0  0  0  0  0
    8.4290   -1.0070   11.9959 H   0  0  0  0  0  0  0  0  0  0  0  0
   10.7483   -1.5544   13.9199 H   0  0  0  0  0  0  0  0  0  0  0  0
    9.3102   -0.6021   14.2934 H   0  0  0  0  0  0  0  0  0  0  0  0
   10.4600   -0.0246   13.0807 H   0  0  0  0  0  0  0  0  0  0  0  0
    5.4976   -6.4950   11.3403 H   0  0  0  0  0  0  0  0  0  0  0  0
    3.6872   -6.2895    4.0773 H   0  0  0  0  0  0  0  0  0  0  0  0
    2.4171   -7.3166    2.2320 H   0  0  0  0  0  0  0  0  0  0  0  0
   -0.6561  -10.9612    3.3257 H   0  0  0  0  0  0  0  0  0  0  0  0
   -1.3239  -10.4815    1.7547 H   0  0  0  0  0  0  0  0  0  0  0  0
   -2.5633   -9.3318    3.5854 H   0  0  0  0  0  0  0  0  0  0  0  0
   -1.6690   -8.1517    2.6153 H   0  0  0  0  0  0  0  0  0  0  0  0
   -1.0572   -8.6444    4.1973 H   0  0  0  0  0  0  0  0  0  0  0  0
    2.2573   -9.3458    6.7125 H   0  0  0  0  0  0  0  0  0  0  0  0
    2.1111   -5.0457    5.4685 H   0  0  0  0  0  0  0  0  0  0  0  0
    3.0894   -0.7775    7.4374 H   0  0  0  0  0  0  0  0  0  0  0  0
    1.6842    0.7443    8.7221 H   0  0  0  0  0  0  0  0  0  0  0  0
    3.0211    1.9166   10.4216 H   0  0  0  0  0  0  0  0  0  0  0  0
    5.2654    6.0404    9.0813 H   0  0  0  0  0  0  0  0  0  0  0  0
    5.2565    6.2760   10.8388 H   0  0  0  0  0  0  0  0  0  0  0  0
    3.2644    7.3778    9.8128 H   0  0  0  0  0  0  0  0  0  0  0  0
    2.7645    6.0437   10.8616 H   0  0  0  0  0  0  0  0  0  0  0  0
    2.7615    5.8403    9.1066 H   0  0  0  0  0  0  0  0  0  0  0  0
    3.2968    3.3408    5.7212 H   0  0  0  0  0  0  0  0  0  0  0  0
   -1.4603   -2.3623    3.8723 H   0  0  0  0  0  0  0  0  0  0  0  0
   -2.3595   -3.3835    1.8298 H   0  0  0  0  0  0  0  0  0  0  0  0
   -4.3073   -2.9241    0.3343 H   0  0  0  0  0  0  0  0  0  0  0  0
   -4.5946   -2.8106   -1.4156 H   0  0  0  0  0  0  0  0  0  0  0  0
   -3.9576   -0.4595    0.4478 H   0  0  0  0  0  0  0  0  0  0  0  0
   -5.5298   -0.7928   -0.2837 H   0  0  0  0  0  0  0  0  0  0  0  0
   -4.1577   -0.3349   -1.3026 H   0  0  0  0  0  0  0  0  0  0  0  0
    0.2433    0.7827    1.5131 H   0  0  0  0  0  0  0  0  0  0  0  0
   -1.5386    1.9579    2.7425 H   0  0  0  0  0  0  0  0  0  0  0  0
   -4.6606    5.5786    0.7499 H   0  0  0  0  0  0  0  0  0  0  0  0
    0.1736    6.3134    3.1754 H   0  0  0  0  0  0  0  0  0  0  0  0
   -2.9002    8.5525   -1.0097 H   0  0  0  0  0  0  0  0  0  0  0  0
   -5.6806    7.4059   -0.3891 H   0  0  0  0  0  0  0  0  0  0  0  0
   -8.7094    8.2429   -4.9699 H   0  0  0  0  0  0  0  0  0  0  0  0
   -3.4545    8.2960   -3.4982 H   0  0  0  0  0  0  0  0  0  0  0  0
   -7.9432    8.7625   -7.9458 H   0  0  0  0  0  0  0  0  0  0  0  0
   -6.8554    7.1424   -9.3750 H   0  0  0  0  0  0  0  0  0  0  0  0
   -4.7822    5.5252   -9.6647 H   0  0  0  0  0  0  0  0  0  0  0  0
   -1.0246    3.0344   -9.5543 H   0  0  0  0  0  0  0  0  0  0  0  0
   -0.4916    2.7164  -11.9272 H   0  0  0  0  0  0  0  0  0  0  0  0
   -4.1785    2.5308  -15.1741 H   0  0  0  0  0  0  0  0  0  0  0  0
   -2.9392    1.7670  -16.1842 H   0  0  0  0  0  0  0  0  0  0  0  0
   -4.4866    0.0498  -15.2113 H   0  0  0  0  0  0  0  0  0  0  0  0
   -2.8296   -0.1734  -14.6342 H   0  0  0  0  0  0  0  0  0  0  0  0
   -4.0414    0.5679  -13.5847 H   0  0  0  0  0  0  0  0  0  0  0  0
   -5.1784    3.2866  -10.5677 H   0  0  0  0  0  0  0  0  0  0  0  0
   -5.3820    0.9279   -4.7926 H   0  0  0  0  0  0  0  0  0  0  0  0
   -6.3954    0.4803   -2.6011 H   0  0  0  0  0  0  0  0  0  0  0  0
   -5.8642    2.2157    1.7524 H   0  0  0  0  0  0  0  0  0  0  0  0
   -5.1122    3.2908    0.5648 H   0  0  0  0  0  0  0  0  0  0  0  0
   -7.1469    4.7932    0.7036 H   0  0  0  0  0  0  0  0  0  0  0  0
   -7.8663    3.6834    1.8701 H   0  0  0  0  0  0  0  0  0  0  0  0
   -6.4100    4.5876    2.3005 H   0  0  0  0  0  0  0  0  0  0  0  0
   -4.7388    5.0020   -3.6276 H   0  0  0  0  0  0  0  0  0  0  0  0
   -2.8651    1.0848   -4.4027 H   0  0  0  0  0  0  0  0  0  0  0  0
   -0.7579   -1.4873   -7.7931 H   0  0  0  0  0  0  0  0  0  0  0  0
    1.6235   -1.7402   -8.3993 H   0  0  0  0  0  0  0  0  0  0  0  0
    1.6140   -1.7625  -10.8277 H   0  0  0  0  0  0  0  0  0  0  0  0
    0.7657   -2.2044  -14.3842 H   0  0  0  0  0  0  0  0  0  0  0  0
    1.6408   -1.6455  -12.9537 H   0  0  0  0  0  0  0  0  0  0  0  0
   -1.4094   -1.8766  -13.2259 H   0  0  0  0  0  0  0  0  0  0  0  0
   -0.5819   -1.3051  -11.7780 H   0  0  0  0  0  0  0  0  0  0  0  0
   -0.4983   -0.3582  -13.2660 H   0  0  0  0  0  0  0  0  0  0  0  0
    0.1472   -5.7598   -8.3391 H   0  0  0  0  0  0  0  0  0  0  0  0
    1.9139   -1.0783   -2.7822 H   0  0  0  0  0  0  0  0  0  0  0  0
    2.5475   -0.7157   -0.4328 H   0  0  0  0  0  0  0  0  0  0  0  0
    3.4279   -3.6182    3.4180 H   0  0  0  0  0  0  0  0  0  0  0  0
    2.1704   -4.5431    2.5753 H   0  0  0  0  0  0  0  0  0  0  0  0
    3.6156   -4.6004    0.5175 H   0  0  0  0  0  0  0  0  0  0  0  0
    4.8447   -3.6507    1.3564 H   0  0  0  0  0  0  0  0  0  0  0  0
    4.4790   -5.2971    1.8895 H   0  0  0  0  0  0  0  0  0  0  0  0
    0.2069   -4.8543   -1.7065 H   0  0  0  0  0  0  0  0  0  0  0  0
    2.3842   -5.4970   -2.7899 H   0  0  0  0  0  0  0  0  0  0  0  0
    3.2614   -7.2239   -4.5252 H   0  0  0  0  0  0  0  0  0  0  0  0
  1  2  2  0  0  0  0
  2  3  1  0  0  0  0
  3  4  2  0  0  0  0
  4  5  1  0  0  0  0
  5  6  2  0  0  0  0
  6  7  1  0  0  0  0
  7  8  2  0  0  0  0
  8  9  1  0  0  0  0
  9 10  1  0  0  0  0
 10 11  1  0  0  0  0
  8 12  1  0  0  0  0
 12 13  1  0  0  0  0
 12 14  2  0  0  0  0
  4 15  1  0  0  0  0
 15 16  2  0  0  0  0
 16 17  1  0  0  0  0
 17 18  1  0  0  0  0
 18 19  2  0  0  0  0
 19 20  1  0  0  0  0
 20 21  2  0  0  0  0
 21 22  1  0  0  0  0
 22 23  1  0  0  0  0
 23 24  1  0  0  0  0
 21 25  1  0  0  0  0
 25 26  2  0  0  0  0
 25 27  1  0  0  0  0
 17 28  2  0  0  0  0
 28 29  1  0  0  0  0
 16 30  1  0  0  0  0
 30 31  2  0  0  0  0
 31 32  1  0  0  0  0
 31 33  1  0  0  0  0
 33 34  2  0  0  0  0
 34 35  1  0  0  0  0
 35 36  2  0  0  0  0
 36 37  1  0  0  0  0
 37 38  2  0  0  0  0
 38 39  1  0  0  0  0
 39 40  2  0  0  0  0
 40 41  1  0  0  0  0
 41 42  1  0  0  0  0
 42 43  1  0  0  0  0
 40 44  1  0  0  0  0
 44 45  1  0  0  0  0
 44 46  2  0  0  0  0
 36 47  1  0  0  0  0
 47 48  2  0  0  0  0
 48 49  1  0  0  0  0
 49 50  1  0  0  0  0
 50 51  2  0  0  0  0
 51 52  1  0  0  0  0
 52 53  2  0  0  0  0
 53 54  1  0  0  0  0
 54 55  1  0  0  0  0
 55 56  1  0  0  0  0
 53 57  1  0  0  0  0
 57 58  2  0  0  0  0
 57 59  1  0  0  0  0
 49 60  2  0  0  0  0
 60 61  1  0  0  0  0
 48 62  1  0  0  0  0
 62 63  2  0  0  0  0
 63 64  1  0  0  0  0
 63 65  1  0  0  0  0
 65 66  1  0  0  0  0
 66 67  1  0  0  0  0
 67 68  1  0  0  0  0
 68 69  2  0  0  0  0
 69 70  1  0  0  0  0
 70 71  1  0  0  0  0
 71 72  1  0  0  0  0
 69 73  1  0  0  0  0
 73 74  2  0  0  0  0
 74 75  1  0  0  0  0
 75 76  1  0  0  0  0
 76 77  1  0  0  0  0
 77 78  1  0  0  0  0
 78 79  2  0  0  0  0
 79 80  1  0  0  0  0
 80 81  1  0  0  0  0
 81 82  1  0  0  0  0
 79 83  1  0  0  0  0
 83 84  2  0  0  0  0
 84 85  1  0  0  0  0
 85 86  2  0  0  0  0
 86 87  1  0  0  0  0
 87 88  2  0  0  0  0
 88 89  1  0  0  0  0
 89 90  2  0  0  0  0
 90 91  1  0  0  0  0
 91 92  2  0  0  0  0
 92 93  1  0  0  0  0
 93 94  1  0  0  0  0
 94 95  1  0  0  0  0
 92 96  1  0  0  0  0
 96 97  1  0  0  0  0
 96 98  2  0  0  0  0
 88 99  1  0  0  0  0
 99100  2  0  0  0  0
100101  1  0  0  0  0
101102  1  0  0  0  0
102103  2  0  0  0  0
103104  1  0  0  0  0
104105  2  0  0  0  0
105106  1  0  0  0  0
106107  1  0  0  0  0
107108  1  0  0  0  0
105109  1  0  0  0  0
109110  2  0  0  0  0
109111  1  0  0  0  0
101112  2  0  0  0  0
112113  1  0  0  0  0
100114  1  0  0  0  0
114115  2  0  0  0  0
115116  1  0  0  0  0
115117  1  0  0  0  0
117118  2  0  0  0  0
118119  1  0  0  0  0
119120  2  0  0  0  0
120121  1  0  0  0  0
121122  2  0  0  0  0
122123  1  0  0  0  0
123124  2  0  0  0  0
124125  1  0  0  0  0
125126  1  0  0  0  0
126127  1  0  0  0  0
124128  1  0  0  0  0
128129  1  0  0  0  0
128130  2  0  0  0  0
120131  1  0  0  0  0
131132  2  0  0  0  0
132133  1  0  0  0  0
133134  1  0  0  0  0
134135  2  0  0  0  0
135136  1  0  0  0  0
136137  2  0  0  0  0
137138  1  0  0  0  0
138139  1  0  0  0  0
139140  1  0  0  0  0
137141  1  0  0  0  0
141142  2  0  0  0  0
141143  1  0  0  0  0
133144  2  0  0  0  0
144145  1  0  0  0  0
132146  1  0  0  0  0
146147  2  0  0  0  0
147148  1  0  0  0  0
 29  1  1  0  0  0  0
 61 33  1  0  0  0  0
 72 65  2  0  0  0  0
 82 75  2  0  0  0  0
113 85  1  0  0  0  0
145117  1  0  0  0  0
 28  3  1  0  0  0  0
 60 35  1  0  0  0  0
 71 67  2  0  0  0  0
 81 77  2  0  0  0  0
112 87  1  0  0  0  0
144119  1  0  0  0  0
 14  5  1  0  0  0  0
 32 15  1  0  0  0  0
 46 37  1  0  0  0  0
 64 47  1  0  0  0  0
 98 89  1  0  0  0  0
116 99  1  0  0  0  0
130121  1  0  0  0  0
148131  1  0  0  0  0
 26 18  1  0  0  0  0
 58 50  1  0  0  0  0
110102  1  0  0  0  0
142134  1  0  0  0  0
  1149  1  0  0  0  0
  2150  1  0  0  0  0
  6151  1  0  0  0  0
  7152  1  0  0  0  0
 10153  1  0  0  0  0
 10154  1  0  0  0  0
 11155  1  0  0  0  0
 11156  1  0  0  0  0
 11157  1  0  0  0  0
 14158  1  0  0  0  0
 19159  1  0  0  0  0
 20160  1  0  0  0  0
 23161  1  0  0  0  0
 23162  1  0  0  0  0
 24163  1  0  0  0  0
 24164  1  0  0  0  0
 24165  1  0  0  0  0
 26166  1  0  0  0  0
 30167  1  0  0  0  0
 34168  1  0  0  0  0
 38169  1  0  0  0  0
 39170  1  0  0  0  0
 42171  1  0  0  0  0
 42172  1  0  0  0  0
 43173  1  0  0  0  0
 43174  1  0  0  0  0
 43175  1  0  0  0  0
 46176  1  0  0  0  0
 51177  1  0  0  0  0
 52178  1  0  0  0  0
 55179  1  0  0  0  0
 55180  1  0  0  0  0
 56181  1  0  0  0  0
 56182  1  0  0  0  0
 56183  1  0  0  0  0
 58184  1  0  0  0  0
 62185  1  0  0  0  0
 68186  1  0  0  0  0
 72187  1  0  0  0  0
 73188  1  0  0  0  0
 74189  1  0  0  0  0
 78190  1  0  0  0  0
 82191  1  0  0  0  0
 83192  1  0  0  0  0
 84193  1  0  0  0  0
 86194  1  0  0  0  0
 90195  1  0  0  0  0
 91196  1  0  0  0  0
 94197  1  0  0  0  0
 94198  1  0  0  0  0
 95199  1  0  0  0  0
 95200  1  0  0  0  0
 95201  1  0  0  0  0
 98202  1  0  0  0  0
103203  1  0  0  0  0
104204  1  0  0  0  0
107205  1  0  0  0  0
107206  1  0  0  0  0
108207  1  0  0  0  0
108208  1  0  0  0  0
108209  1  0  0  0  0
110210  1  0  0  0  0
114211  1  0  0  0  0
118212  1  0  0  0  0
122213  1  0  0  0  0
123214  1  0  0  0  0
126215  1  0  0  0  0
126216  1  0  0  0  0
127217  1  0  0  0  0
127218  1  0  0  0  0
127219  1  0  0  0  0
130220  1  0  0  0  0
135221  1  0  0  0  0
136222  1  0  0  0  0
139223  1  0  0  0  0
139224  1  0  0  0  0
140225  1  0  0  0  0
140226  1  0  0  0  0
140227  1  0  0  0  0
142228  1  0  0  0  0
146229  1  0  0  0  0
147230  1  0  0  0  0
M  END
