
  xtb     03042205173D
 energy: -404.972523382920 gnorm: 0.000225231611 xtb: 6.4.1 (unknown)
230253  0     0  0            999 V2000
    5.2714  -19.9722    7.3796 C   0  0  0  0  0  0  0  0  0  0  0  0
    6.3932  -19.6779    6.6741 O   0  0  0  0  0  0  0  0  0  0  0  0
    6.0550  -18.6464    5.8787 C   0  0  0  0  0  0  0  0  0  0  0  0
    6.5620  -17.7745    4.9060 C   0  0  0  0  0  0  0  0  0  0  0  0
    5.4925  -16.9478    4.5778 C   0  0  0  0  0  0  0  0  0  0  0  0
    4.3763  -17.2647    5.2990 O   0  0  0  0  0  0  0  0  0  0  0  0
    4.7200  -18.2925    6.0832 C   0  0  0  0  0  0  0  0  0  0  0  0
    4.2125  -19.1649    7.0689 C   0  0  0  0  0  0  0  0  0  0  0  0
    5.5269  -15.8641    3.6514 C   0  0  0  0  0  0  0  0  0  0  0  0
    4.5450  -15.0394    3.2179 C   0  0  0  0  0  0  0  0  0  0  0  0
    3.1434  -15.0437    3.4745 C   0  0  0  0  0  0  0  0  0  0  0  0
    2.5071  -16.0766    4.1055 O   0  0  0  0  0  0  0  0  0  0  0  0
    1.2109  -15.7439    4.1488 C   0  0  0  0  0  0  0  0  0  0  0  0
   -0.0368  -16.1956    4.5886 C   0  0  0  0  0  0  0  0  0  0  0  0
   -0.9311  -15.1890    4.2316 C   0  0  0  0  0  0  0  0  0  0  0  0
   -0.2899  -14.1596    3.5982 O   0  0  0  0  0  0  0  0  0  0  0  0
    1.0056  -14.4953    3.5442 C   0  0  0  0  0  0  0  0  0  0  0  0
    2.2496  -14.0434    3.0994 C   0  0  0  0  0  0  0  0  0  0  0  0
   -2.3267  -15.1513    4.5017 C   0  0  0  0  0  0  0  0  0  0  0  0
   -3.2560  -14.1936    4.2662 C   0  0  0  0  0  0  0  0  0  0  0  0
   -3.1801  -12.9202    3.6235 C   0  0  0  0  0  0  0  0  0  0  0  0
   -4.1754  -11.9777    3.6985 C   0  0  0  0  0  0  0  0  0  0  0  0
   -3.9002  -10.7779    3.0024 C   0  0  0  0  0  0  0  0  0  0  0  0
   -4.6788   -9.6064    2.9377 C   0  0  0  0  0  0  0  0  0  0  0  0
   -6.0135   -9.5394    3.5441 C   0  0  0  0  0  0  0  0  0  0  0  0
   -6.9668  -10.5159    3.2687 C   0  0  0  0  0  0  0  0  0  0  0  0
   -8.2347  -10.4538    3.8135 C   0  0  0  0  0  0  0  0  0  0  0  0
   -8.5969   -9.4084    4.6553 C   0  0  0  0  0  0  0  0  0  0  0  0
  -10.1658   -9.2174    5.4352 S   0  0  0  0  0  0  0  0  0  0  0  0
  -11.2647  -10.3479    4.5136 C   0  0  0  0  0  0  0  0  0  0  0  0
  -11.5345   -9.8654    3.1011 C   0  0  0  0  0  0  0  0  0  0  0  0
   -7.6277   -8.4422    4.9314 C   0  0  0  0  0  0  0  0  0  0  0  0
   -7.9379   -7.4240    5.7588 F   0  0  0  0  0  0  0  0  0  0  0  0
   -6.3622   -8.4906    4.3926 C   0  0  0  0  0  0  0  0  0  0  0  0
   -4.1197   -8.5268    2.2714 C   0  0  0  0  0  0  0  0  0  0  0  0
   -2.8658   -8.5954    1.6146 C   0  0  0  0  0  0  0  0  0  0  0  0
   -2.1120   -9.7810    1.6290 C   0  0  0  0  0  0  0  0  0  0  0  0
   -0.8378   -9.8562    0.9066 C   0  0  0  0  0  0  0  0  0  0  0  0
   -0.7471   -9.3956   -0.4058 C   0  0  0  0  0  0  0  0  0  0  0  0
    0.4553   -9.3853   -1.0841 C   0  0  0  0  0  0  0  0  0  0  0  0
    1.6192   -9.8404   -0.4731 C   0  0  0  0  0  0  0  0  0  0  0  0
    3.2132   -9.8170   -1.2179 S   0  0  0  0  0  0  0  0  0  0  0  0
    3.0016   -8.6207   -2.5919 C   0  0  0  0  0  0  0  0  0  0  0  0
    4.3681   -8.1814   -3.0803 C   0  0  0  0  0  0  0  0  0  0  0  0
    1.5027  -10.3547    0.8193 C   0  0  0  0  0  0  0  0  0  0  0  0
    0.3118  -10.3640    1.5093 C   0  0  0  0  0  0  0  0  0  0  0  0
    2.6027  -10.8460    1.4301 F   0  0  0  0  0  0  0  0  0  0  0  0
   -2.6368  -10.8355    2.3600 C   0  0  0  0  0  0  0  0  0  0  0  0
   -1.8539  -12.3637    2.6273 S   0  0  0  0  0  0  0  0  0  0  0  0
   -2.4987   -7.3533    1.0468 C   0  0  0  0  0  0  0  0  0  0  0  0
   -3.4273   -6.3695    1.2220 C   0  0  0  0  0  0  0  0  0  0  0  0
   -4.8281   -6.9362    2.1060 S   0  0  0  0  0  0  0  0  0  0  0  0
   -3.2656   -5.0138    0.8018 C   0  0  0  0  0  0  0  0  0  0  0  0
   -2.3259   -4.5676   -0.0819 C   0  0  0  0  0  0  0  0  0  0  0  0
   -2.2914   -3.1598   -0.2112 C   0  0  0  0  0  0  0  0  0  0  0  0
   -1.4060   -2.3882   -0.9776 C   0  0  0  0  0  0  0  0  0  0  0  0
   -0.3317   -2.9806   -1.7848 C   0  0  0  0  0  0  0  0  0  0  0  0
    0.5734   -3.8874   -1.2352 C   0  0  0  0  0  0  0  0  0  0  0  0
    1.6280   -4.3664   -1.9831 C   0  0  0  0  0  0  0  0  0  0  0  0
    1.8166   -3.9741   -3.3068 C   0  0  0  0  0  0  0  0  0  0  0  0
    3.2055   -4.6447   -4.1733 S   0  0  0  0  0  0  0  0  0  0  0  0
    3.8420   -3.2305   -5.1494 C   0  0  0  0  0  0  0  0  0  0  0  0
    4.1357   -2.0196   -4.2877 C   0  0  0  0  0  0  0  0  0  0  0  0
    0.8790   -3.1051   -3.8558 C   0  0  0  0  0  0  0  0  0  0  0  0
    0.9672   -2.7195   -5.1482 F   0  0  0  0  0  0  0  0  0  0  0  0
   -0.1676   -2.5996   -3.1126 C   0  0  0  0  0  0  0  0  0  0  0  0
   -1.5531   -1.0138   -0.8930 C   0  0  0  0  0  0  0  0  0  0  0  0
   -2.5177   -0.3731   -0.0761 C   0  0  0  0  0  0  0  0  0  0  0  0
   -3.4162   -1.1501    0.6747 C   0  0  0  0  0  0  0  0  0  0  0  0
   -4.4263   -0.5443    1.5510 C   0  0  0  0  0  0  0  0  0  0  0  0
   -4.0795    0.4121    2.5039 C   0  0  0  0  0  0  0  0  0  0  0  0
   -5.0332    0.9344    3.3508 C   0  0  0  0  0  0  0  0  0  0  0  0
   -6.3683    0.5418    3.2720 C   0  0  0  0  0  0  0  0  0  0  0  0
   -7.5076    1.3035    4.3891 S   0  0  0  0  0  0  0  0  0  0  0  0
   -8.6312   -0.0586    4.8760 C   0  0  0  0  0  0  0  0  0  0  0  0
   -7.8808   -1.2315    5.4732 C   0  0  0  0  0  0  0  0  0  0  0  0
   -6.7054   -0.3861    2.2910 C   0  0  0  0  0  0  0  0  0  0  0  0
   -5.7562   -0.9401    1.4568 C   0  0  0  0  0  0  0  0  0  0  0  0
   -7.9870   -0.7733    2.1150 F   0  0  0  0  0  0  0  0  0  0  0  0
   -3.2829   -2.5283    0.5804 C   0  0  0  0  0  0  0  0  0  0  0  0
   -4.2122   -3.7052    1.4758 S   0  0  0  0  0  0  0  0  0  0  0  0
   -2.4010    1.0420   -0.1366 C   0  0  0  0  0  0  0  0  0  0  0  0
   -1.3802    1.4700   -0.9304 C   0  0  0  0  0  0  0  0  0  0  0  0
   -0.5216    0.1397   -1.6885 S   0  0  0  0  0  0  0  0  0  0  0  0
   -0.8957    2.7867   -1.1824 C   0  0  0  0  0  0  0  0  0  0  0  0
    0.1366    3.0970   -2.0158 C   0  0  0  0  0  0  0  0  0  0  0  0
    0.4762    4.4701   -2.0236 C   0  0  0  0  0  0  0  0  0  0  0  0
    1.5118    5.0839   -2.7481 C   0  0  0  0  0  0  0  0  0  0  0  0
    2.4044    4.2596   -3.5739 C   0  0  0  0  0  0  0  0  0  0  0  0
    3.0370    3.1468   -3.0194 C   0  0  0  0  0  0  0  0  0  0  0  0
    3.7899    2.3013   -3.8051 C   0  0  0  0  0  0  0  0  0  0  0  0
    3.9444    2.5365   -5.1680 C   0  0  0  0  0  0  0  0  0  0  0  0
    4.8904    1.3713   -6.1110 S   0  0  0  0  0  0  0  0  0  0  0  0
    3.8029    1.0580   -7.5522 C   0  0  0  0  0  0  0  0  0  0  0  0
    2.4437    0.5330   -7.1349 C   0  0  0  0  0  0  0  0  0  0  0  0
    3.3683    3.6883   -5.6942 C   0  0  0  0  0  0  0  0  0  0  0  0
    3.5278    3.9992   -6.9976 F   0  0  0  0  0  0  0  0  0  0  0  0
    2.6007    4.5381   -4.9215 C   0  0  0  0  0  0  0  0  0  0  0  0
    1.6294    6.4573   -2.6177 C   0  0  0  0  0  0  0  0  0  0  0  0
    0.7904    7.2132   -1.7604 C   0  0  0  0  0  0  0  0  0  0  0  0
   -0.2227    6.5932   -1.0064 C   0  0  0  0  0  0  0  0  0  0  0  0
   -1.0463    7.3860   -0.0862 C   0  0  0  0  0  0  0  0  0  0  0  0
   -2.4350    7.3065   -0.0946 C   0  0  0  0  0  0  0  0  0  0  0  0
   -3.2044    8.1101    0.7263 C   0  0  0  0  0  0  0  0  0  0  0  0
   -2.6103    9.0303    1.5819 C   0  0  0  0  0  0  0  0  0  0  0  0
   -3.4527   10.1411    2.6601 S   0  0  0  0  0  0  0  0  0  0  0  0
   -5.2008   10.0353    2.1484 C   0  0  0  0  0  0  0  0  0  0  0  0
   -5.4545   10.7187    0.8180 C   0  0  0  0  0  0  0  0  0  0  0  0
   -1.2152    9.0715    1.6066 C   0  0  0  0  0  0  0  0  0  0  0  0
   -0.4376    8.2717    0.8036 C   0  0  0  0  0  0  0  0  0  0  0  0
   -0.6029    9.9431    2.4377 F   0  0  0  0  0  0  0  0  0  0  0  0
   -0.3723    5.2266   -1.1780 C   0  0  0  0  0  0  0  0  0  0  0  0
   -1.5367    4.2018   -0.3702 S   0  0  0  0  0  0  0  0  0  0  0  0
    1.1158    8.5897   -1.7954 C   0  0  0  0  0  0  0  0  0  0  0  0
    2.1772    8.8875   -2.5988 C   0  0  0  0  0  0  0  0  0  0  0  0
    2.8169    7.4697   -3.4003 S   0  0  0  0  0  0  0  0  0  0  0  0
    2.7301   10.1955   -2.7646 C   0  0  0  0  0  0  0  0  0  0  0  0
    2.5161   11.2442   -1.9196 C   0  0  0  0  0  0  0  0  0  0  0  0
    3.1283   12.4510   -2.3375 C   0  0  0  0  0  0  0  0  0  0  0  0
    3.1007   13.6965   -1.6874 C   0  0  0  0  0  0  0  0  0  0  0  0
    2.3301   13.8808   -0.4529 C   0  0  0  0  0  0  0  0  0  0  0  0
    1.0192   13.4194   -0.3505 C   0  0  0  0  0  0  0  0  0  0  0  0
    0.3057   13.5321    0.8267 C   0  0  0  0  0  0  0  0  0  0  0  0
    0.8735   14.1231    1.9502 C   0  0  0  0  0  0  0  0  0  0  0  0
    0.0941   14.3099    3.5149 S   0  0  0  0  0  0  0  0  0  0  0  0
   -1.3892   13.2487    3.4180 C   0  0  0  0  0  0  0  0  0  0  0  0
   -2.5918   13.9588    2.8251 C   0  0  0  0  0  0  0  0  0  0  0  0
    2.1744   14.6168    1.8217 C   0  0  0  0  0  0  0  0  0  0  0  0
    2.7548   15.2107    2.8835 F   0  0  0  0  0  0  0  0  0  0  0  0
    2.8994   14.5017    0.6578 C   0  0  0  0  0  0  0  0  0  0  0  0
    3.8353   14.7148   -2.2794 C   0  0  0  0  0  0  0  0  0  0  0  0
    4.5750   14.5415   -3.4749 C   0  0  0  0  0  0  0  0  0  0  0  0
    4.6034   13.2951   -4.1189 C   0  0  0  0  0  0  0  0  0  0  0  0
    5.3929   13.0741   -5.3365 C   0  0  0  0  0  0  0  0  0  0  0  0
    6.7419   13.4239   -5.3877 C   0  0  0  0  0  0  0  0  0  0  0  0
    7.4859   13.1855   -6.5221 C   0  0  0  0  0  0  0  0  0  0  0  0
    6.9174   12.6045   -7.6560 C   0  0  0  0  0  0  0  0  0  0  0  0
    7.9656   12.3921   -9.0592 S   0  0  0  0  0  0  0  0  0  0  0  0
    7.3016   10.8950   -9.8931 C   0  0  0  0  0  0  0  0  0  0  0  0
    8.4038   10.2740  -10.7283 C   0  0  0  0  0  0  0  0  0  0  0  0
    5.5643   12.2846   -7.5989 C   0  0  0  0  0  0  0  0  0  0  0  0
    4.8138   12.4948   -6.4598 C   0  0  0  0  0  0  0  0  0  0  0  0
    4.9268   11.7653   -8.6725 F   0  0  0  0  0  0  0  0  0  0  0  0
    3.8612   12.2780   -3.5369 C   0  0  0  0  0  0  0  0  0  0  0  0
    3.7443   10.6358   -4.1212 S   0  0  0  0  0  0  0  0  0  0  0  0
    5.1794   15.7627   -3.8989 C   0  0  0  0  0  0  0  0  0  0  0  0
    4.9193   16.7931   -3.0694 C   0  0  0  0  0  0  0  0  0  0  0  0
    3.9288   16.3644   -1.7177 S   0  0  0  0  0  0  0  0  0  0  0  0
    5.3475  -20.7813    8.0784 H   0  0  0  0  0  0  0  0  0  0  0  0
    7.5461  -17.7330    4.4887 H   0  0  0  0  0  0  0  0  0  0  0  0
    3.2297  -19.2017    7.4888 H   0  0  0  0  0  0  0  0  0  0  0  0
    6.5222  -15.6828    3.2688 H   0  0  0  0  0  0  0  0  0  0  0  0
    4.8367  -14.2304    2.5620 H   0  0  0  0  0  0  0  0  0  0  0  0
   -0.2802  -17.1049    5.0972 H   0  0  0  0  0  0  0  0  0  0  0  0
    2.4968  -13.1348    2.5923 H   0  0  0  0  0  0  0  0  0  0  0  0
   -2.6670  -16.0393    5.0178 H   0  0  0  0  0  0  0  0  0  0  0  0
   -4.2496  -14.3985    4.6486 H   0  0  0  0  0  0  0  0  0  0  0  0
   -5.0682  -12.1269    4.2796 H   0  0  0  0  0  0  0  0  0  0  0  0
   -6.7185  -11.3265    2.6000 H   0  0  0  0  0  0  0  0  0  0  0  0
   -8.9402  -11.2340    3.5775 H   0  0  0  0  0  0  0  0  0  0  0  0
  -12.1805  -10.3472    5.1048 H   0  0  0  0  0  0  0  0  0  0  0  0
  -10.8387  -11.3501    4.5388 H   0  0  0  0  0  0  0  0  0  0  0  0
  -10.6144   -9.8117    2.5231 H   0  0  0  0  0  0  0  0  0  0  0  0
  -12.2205  -10.5469    2.6015 H   0  0  0  0  0  0  0  0  0  0  0  0
  -11.9824   -8.8747    3.1232 H   0  0  0  0  0  0  0  0  0  0  0  0
   -5.6533   -7.7207    4.6523 H   0  0  0  0  0  0  0  0  0  0  0  0
   -1.6384   -9.0559   -0.9118 H   0  0  0  0  0  0  0  0  0  0  0  0
    0.4819   -9.0226   -2.0990 H   0  0  0  0  0  0  0  0  0  0  0  0
    2.4382   -7.7716   -2.2058 H   0  0  0  0  0  0  0  0  0  0  0  0
    2.4422   -9.1089   -3.3901 H   0  0  0  0  0  0  0  0  0  0  0  0
    4.2515   -7.4400   -3.8675 H   0  0  0  0  0  0  0  0  0  0  0  0
    4.9267   -9.0289   -3.4702 H   0  0  0  0  0  0  0  0  0  0  0  0
    4.9371   -7.7376   -2.2670 H   0  0  0  0  0  0  0  0  0  0  0  0
    0.2956  -10.7393    2.5198 H   0  0  0  0  0  0  0  0  0  0  0  0
   -1.5504   -7.1846    0.5716 H   0  0  0  0  0  0  0  0  0  0  0  0
   -1.6778   -5.2226   -0.6337 H   0  0  0  0  0  0  0  0  0  0  0  0
    0.4729   -4.1821   -0.2017 H   0  0  0  0  0  0  0  0  0  0  0  0
    2.3437   -5.0453   -1.5452 H   0  0  0  0  0  0  0  0  0  0  0  0
    3.1329   -3.0082   -5.9444 H   0  0  0  0  0  0  0  0  0  0  0  0
    4.7555   -3.6287   -5.5911 H   0  0  0  0  0  0  0  0  0  0  0  0
    4.8120   -2.2836   -3.4772 H   0  0  0  0  0  0  0  0  0  0  0  0
    3.2214   -1.6144   -3.8564 H   0  0  0  0  0  0  0  0  0  0  0  0
    4.6037   -1.2451   -4.8928 H   0  0  0  0  0  0  0  0  0  0  0  0
   -0.8622   -1.9257   -3.5894 H   0  0  0  0  0  0  0  0  0  0  0  0
   -3.0491    0.7167    2.6054 H   0  0  0  0  0  0  0  0  0  0  0  0
   -4.7586    1.6594    4.1011 H   0  0  0  0  0  0  0  0  0  0  0  0
   -9.2807    0.4109    5.6150 H   0  0  0  0  0  0  0  0  0  0  0  0
   -9.2277   -0.3508    4.0147 H   0  0  0  0  0  0  0  0  0  0  0  0
   -7.2701   -0.9076    6.3135 H   0  0  0  0  0  0  0  0  0  0  0  0
   -8.5902   -1.9783    5.8236 H   0  0  0  0  0  0  0  0  0  0  0  0
   -7.2324   -1.6980    4.7338 H   0  0  0  0  0  0  0  0  0  0  0  0
   -6.0740   -1.6573    0.7160 H   0  0  0  0  0  0  0  0  0  0  0  0
   -3.0489    1.7193    0.3907 H   0  0  0  0  0  0  0  0  0  0  0  0
    0.6381    2.3568   -2.6132 H   0  0  0  0  0  0  0  0  0  0  0  0
    2.9325    2.9458   -1.9641 H   0  0  0  0  0  0  0  0  0  0  0  0
    4.2616    1.4302   -3.3774 H   0  0  0  0  0  0  0  0  0  0  0  0
    4.3534    0.3154   -8.1295 H   0  0  0  0  0  0  0  0  0  0  0  0
    3.7246    1.9731   -8.1353 H   0  0  0  0  0  0  0  0  0  0  0  0
    1.9063    1.2736   -6.5447 H   0  0  0  0  0  0  0  0  0  0  0  0
    1.8531    0.3052   -8.0198 H   0  0  0  0  0  0  0  0  0  0  0  0
    2.5436   -0.3728   -6.5413 H   0  0  0  0  0  0  0  0  0  0  0  0
    2.1496    5.4012   -5.3856 H   0  0  0  0  0  0  0  0  0  0  0  0
   -2.9267    6.6235   -0.7700 H   0  0  0  0  0  0  0  0  0  0  0  0
   -4.2770    8.0138    0.6862 H   0  0  0  0  0  0  0  0  0  0  0  0
   -5.4985    8.9877    2.1450 H   0  0  0  0  0  0  0  0  0  0  0  0
   -5.7334   10.5428    2.9529 H   0  0  0  0  0  0  0  0  0  0  0  0
   -6.5107   10.6530    0.5647 H   0  0  0  0  0  0  0  0  0  0  0  0
   -5.1762   11.7686    0.8747 H   0  0  0  0  0  0  0  0  0  0  0  0
   -4.8767   10.2541    0.0218 H   0  0  0  0  0  0  0  0  0  0  0  0
    0.6365    8.3322    0.8836 H   0  0  0  0  0  0  0  0  0  0  0  0
    0.5599    9.3403   -1.2659 H   0  0  0  0  0  0  0  0  0  0  0  0
    1.9693   11.1524   -1.0001 H   0  0  0  0  0  0  0  0  0  0  0  0
    0.5396   12.9856   -1.2154 H   0  0  0  0  0  0  0  0  0  0  0  0
   -0.7010   13.1497    0.8635 H   0  0  0  0  0  0  0  0  0  0  0  0
   -1.1241   12.3452    2.8743 H   0  0  0  0  0  0  0  0  0  0  0  0
   -1.5837   12.9782    4.4556 H   0  0  0  0  0  0  0  0  0  0  0  0
   -2.3955   14.2982    1.8104 H   0  0  0  0  0  0  0  0  0  0  0  0
   -2.8530   14.8258    3.4273 H   0  0  0  0  0  0  0  0  0  0  0  0
   -3.4394   13.2761    2.8090 H   0  0  0  0  0  0  0  0  0  0  0  0
    3.9123   14.8707    0.6350 H   0  0  0  0  0  0  0  0  0  0  0  0
    7.2140   13.8557   -4.5183 H   0  0  0  0  0  0  0  0  0  0  0  0
    8.5330   13.4437   -6.5533 H   0  0  0  0  0  0  0  0  0  0  0  0
    6.4570   11.1915  -10.5131 H   0  0  0  0  0  0  0  0  0  0  0  0
    6.9668   10.2133   -9.1128 H   0  0  0  0  0  0  0  0  0  0  0  0
    9.2482    9.9963  -10.1014 H   0  0  0  0  0  0  0  0  0  0  0  0
    8.7514   10.9751  -11.4837 H   0  0  0  0  0  0  0  0  0  0  0  0
    8.0283    9.3825  -11.2258 H   0  0  0  0  0  0  0  0  0  0  0  0
    3.7677   12.2313   -6.4755 H   0  0  0  0  0  0  0  0  0  0  0  0
    5.7625   15.8516   -4.7975 H   0  0  0  0  0  0  0  0  0  0  0  0
    5.2498   17.8096   -3.1580 H   0  0  0  0  0  0  0  0  0  0  0  0
  1  2  1  0  0  0  0
  2  3  1  0  0  0  0
  3  4  1  0  0  0  0
  4  5  2  0  0  0  0
  5  6  1  0  0  0  0
  6  7  1  0  0  0  0
  7  8  1  0  0  0  0
  5  9  1  0  0  0  0
  9 10  2  0  0  0  0
 10 11  1  0  0  0  0
 11 12  1  0  0  0  0
 12 13  1  0  0  0  0
 13 14  1  0  0  0  0
 14 15  2  0  0  0  0
 15 16  1  0  0  0  0
 16 17  1  0  0  0  0
 17 18  1  0  0  0  0
 15 19  1  0  0  0  0
 19 20  2  0  0  0  0
 20 21  1  0  0  0  0
 21 22  2  0  0  0  0
 22 23  1  0  0  0  0
 23 24  2  0  0  0  0
 24 25  1  0  0  0  0
 25 26  2  0  0  0  0
 26 27  1  0  0  0  0
 27 28  2  0  0  0  0
 28 29  1  0  0  0  0
 29 30  1  0  0  0  0
 30 31  1  0  0  0  0
 28 32  1  0  0  0  0
 32 33  1  0  0  0  0
 32 34  2  0  0  0  0
 24 35  1  0  0  0  0
 35 36  2  0  0  0  0
 36 37  1  0  0  0  0
 37 38  1  0  0  0  0
 38 39  2  0  0  0  0
 39 40  1  0  0  0  0
 40 41  2  0  0  0  0
 41 42  1  0  0  0  0
 42 43  1  0  0  0  0
 43 44  1  0  0  0  0
 41 45  1  0  0  0  0
 45 46  2  0  0  0  0
 45 47  1  0  0  0  0
 37 48  2  0  0  0  0
 48 49  1  0  0  0  0
 36 50  1  0  0  0  0
 50 51  2  0  0  0  0
 51 52  1  0  0  0  0
 51 53  1  0  0  0  0
 53 54  2  0  0  0  0
 54 55  1  0  0  0  0
 55 56  2  0  0  0  0
 56 57  1  0  0  0  0
 57 58  2  0  0  0  0
 58 59  1  0  0  0  0
 59 60  2  0  0  0  0
 60 61  1  0  0  0  0
 61 62  1  0  0  0  0
 62 63  1  0  0  0  0
 60 64  1  0  0  0  0
 64 65  1  0  0  0  0
 64 66  2  0  0  0  0
 56 67  1  0  0  0  0
 67 68  2  0  0  0  0
 68 69  1  0  0  0  0
 69 70  1  0  0  0  0
 70 71  2  0  0  0  0
 71 72  1  0  0  0  0
 72 73  2  0  0  0  0
 73 74  1  0  0  0  0
 74 75  1  0  0  0  0
 75 76  1  0  0  0  0
 73 77  1  0  0  0  0
 77 78  2  0  0  0  0
 77 79  1  0  0  0  0
 69 80  2  0  0  0  0
 80 81  1  0  0  0  0
 68 82  1  0  0  0  0
 82 83  2  0  0  0  0
 83 84  1  0  0  0  0
 83 85  1  0  0  0  0
 85 86  2  0  0  0  0
 86 87  1  0  0  0  0
 87 88  2  0  0  0  0
 88 89  1  0  0  0  0
 89 90  2  0  0  0  0
 90 91  1  0  0  0  0
 91 92  2  0  0  0  0
 92 93  1  0  0  0  0
 93 94  1  0  0  0  0
 94 95  1  0  0  0  0
 92 96  1  0  0  0  0
 96 97  1  0  0  0  0
 96 98  2  0  0  0  0
 88 99  1  0  0  0  0
 99100  2  0  0  0  0
100101  1  0  0  0  0
101102  1  0  0  0  0
102103  2  0  0  0  0
103104  1  0  0  0  0
104105  2  0  0  0  0
105106  1  0  0  0  0
106107  1  0  0  0  0
107108  1  0  0  0  0
105109  1  0  0  0  0
109110  2  0  0  0  0
109111  1  0  0  0  0
101112  2  0  0  0  0
112113  1  0  0  0  0
100114  1  0  0  0  0
114115  2  0  0  0  0
115116  1  0  0  0  0
115117  1  0  0  0  0
117118  2  0  0  0  0
118119  1  0  0  0  0
119120  2  0  0  0  0
120121  1  0  0  0  0
121122  2  0  0  0  0
122123  1  0  0  0  0
123124  2  0  0  0  0
124125  1  0  0  0  0
125126  1  0  0  0  0
126127  1  0  0  0  0
124128  1  0  0  0  0
128129  1  0  0  0  0
128130  2  0  0  0  0
120131  1  0  0  0  0
131132  2  0  0  0  0
132133  1  0  0  0  0
133134  1  0  0  0  0
134135  2  0  0  0  0
135136  1  0  0  0  0
136137  2  0  0  0  0
137138  1  0  0  0  0
138139  1  0  0  0  0
139140  1  0  0  0  0
137141  1  0  0  0  0
141142  2  0  0  0  0
141143  1  0  0  0  0
133144  2  0  0  0  0
144145  1  0  0  0  0
132146  1  0  0  0  0
146147  2  0  0  0  0
147148  1  0  0  0  0
  8  1  2  0  0  0  0
 18 11  2  0  0  0  0
 49 21  1  0  0  0  0
 81 53  1  0  0  0  0
113 85  1  0  0  0  0
145117  1  0  0  0  0
  7  3  2  0  0  0  0
 17 13  2  0  0  0  0
 48 23  1  0  0  0  0
 80 55  1  0  0  0  0
112 87  1  0  0  0  0
144119  1  0  0  0  0
 34 25  1  0  0  0  0
 52 35  1  0  0  0  0
 66 57  1  0  0  0  0
 84 67  1  0  0  0  0
 98 89  1  0  0  0  0
116 99  1  0  0  0  0
130121  1  0  0  0  0
148131  1  0  0  0  0
 46 38  1  0  0  0  0
 78 70  1  0  0  0  0
110102  1  0  0  0  0
142134  1  0  0  0  0
  1149  1  0  0  0  0
  4150  1  0  0  0  0
  8151  1  0  0  0  0
  9152  1  0  0  0  0
 10153  1  0  0  0  0
 14154  1  0  0  0  0
 18155  1  0  0  0  0
 19156  1  0  0  0  0
 20157  1  0  0  0  0
 22158  1  0  0  0  0
 26159  1  0  0  0  0
 27160  1  0  0  0  0
 30161  1  0  0  0  0
 30162  1  0  0  0  0
 31163  1  0  0  0  0
 31164  1  0  0  0  0
 31165  1  0  0  0  0
 34166  1  0  0  0  0
 39167  1  0  0  0  0
 40168  1  0  0  0  0
 43169  1  0  0  0  0
 43170  1  0  0  0  0
 44171  1  0  0  0  0
 44172  1  0  0  0  0
 44173  1  0  0  0  0
 46174  1  0  0  0  0
 50175  1  0  0  0  0
 54176  1  0  0  0  0
 58177  1  0  0  0  0
 59178  1  0  0  0  0
 62179  1  0  0  0  0
 62180  1  0  0  0  0
 63181  1  0  0  0  0
 63182  1  0  0  0  0
 63183  1  0  0  0  0
 66184  1  0  0  0  0
 71185  1  0  0  0  0
 72186  1  0  0  0  0
 75187  1  0  0  0  0
 75188  1  0  0  0  0
 76189  1  0  0  0  0
 76190  1  0  0  0  0
 76191  1  0  0  0  0
 78192  1  0  0  0  0
 82193  1  0  0  0  0
 86194  1  0  0  0  0
 90195  1  0  0  0  0
 91196  1  0  0  0  0
 94197  1  0  0  0  0
 94198  1  0  0  0  0
 95199  1  0  0  0  0
 95200  1  0  0  0  0
 95201  1  0  0  0  0
 98202  1  0  0  0  0
103203  1  0  0  0  0
104204  1  0  0  0  0
107205  1  0  0  0  0
107206  1  0  0  0  0
108207  1  0  0  0  0
108208  1  0  0  0  0
108209  1  0  0  0  0
110210  1  0  0  0  0
114211  1  0  0  0  0
118212  1  0  0  0  0
122213  1  0  0  0  0
123214  1  0  0  0  0
126215  1  0  0  0  0
126216  1  0  0  0  0
127217  1  0  0  0  0
127218  1  0  0  0  0
127219  1  0  0  0  0
130220  1  0  0  0  0
135221  1  0  0  0  0
136222  1  0  0  0  0
139223  1  0  0  0  0
139224  1  0  0  0  0
140225  1  0  0  0  0
140226  1  0  0  0  0
140227  1  0  0  0  0
142228  1  0  0  0  0
146229  1  0  0  0  0
147230  1  0  0  0  0
M  END
