230

C          6.17460       -9.36330        8.61200
C          6.28960       -8.11780        9.11460
C          5.42350       -7.17880        8.47850
C          5.31420       -5.80030        8.71640
C          6.08630       -5.13290        9.77170
C          6.82870       -3.98880        9.49780
C          7.55290       -3.34920       10.48550
C          7.55430       -3.83050       11.79000
S          8.42660       -3.11990       13.14060
C          9.21630       -1.63850       12.40780
C          9.98220       -0.90950       13.49570
C          6.80070       -4.97770       12.05130
F          6.77540       -5.46980       13.30710
C          6.07960       -5.62610       11.07560
C          4.43580       -5.09750        7.90490
C          3.66530       -5.70840        6.88590
C          3.78520       -7.08480        6.63780
C          3.05010       -7.71990        5.53830
C          3.09110       -7.17090        4.25670
C          2.39270       -7.74960        3.22000
C          1.63490       -8.90320        3.41370
S          0.81340       -9.57560        1.99940
C         -0.80860      -10.12530        2.64680
C         -1.56990       -8.99020        3.30150
C          1.63370       -9.46150        4.68830
C          2.31450       -8.88200        5.74030
F          0.95300      -10.60000        4.94390
C          4.65670       -7.78950        7.45650
S          5.01570       -9.49260        7.33380
C          2.80440       -4.78000        6.24650
C          2.91630       -3.51000        6.72630
S          4.09370       -3.38900        8.02040
C          2.23150       -2.34900        6.26130
C          2.39240       -1.05880        6.66830
C          1.59400       -0.13260        5.94970
C          1.58180        1.26750        6.07380
C          2.38490        1.95090        7.09400
C          2.33390        1.55500        8.43000
C          3.07320        2.21670        9.38660
C          3.90090        3.28620        9.05130
S          4.84210        4.03020       10.35200
C          4.72630        5.82360       10.00080
C          3.28820        6.29770        9.94230
C          3.96080        3.65400        7.71070
F          4.77460        4.65270        7.30380
C          3.20710        3.01720        6.74620
C          0.76830        1.96320        5.19240
C         -0.02300        1.31950        4.21100
C          0.04800       -0.07300        4.03160
C         -0.56210       -0.70230        2.85430
C         -1.29030       -1.88730        2.91850
C         -1.80730       -2.45790        1.77090
C         -1.62260       -1.86070        0.53170
S         -2.30330       -2.56690       -0.95260
C         -4.08320       -2.35600       -0.56810
C         -4.45470       -0.89450       -0.41800
C         -0.87810       -0.68910        0.47300
C         -0.35140       -0.11190        1.60870
F         -0.67000       -0.08140       -0.71070
C          0.82370       -0.77110        4.94380
S          1.05870       -2.49520        4.96760
C         -0.83150        2.23940        3.50080
C         -0.62870        3.53770        3.86230
S          0.55510        3.70010        5.13540
C         -1.25810        4.65560        3.22590
O         -2.49380        4.41560        2.67950
C         -2.79000        5.51110        1.96510
C         -3.74420        6.01420        1.07870
C         -3.20730        7.21100        0.62540
O         -2.00060        7.48290        1.21770
C         -1.75210        6.44600        2.03700
C         -0.76870        5.90200        2.87950
C         -3.65140        7.97060       -0.49660
C         -4.90850        7.87180       -0.98340
C         -5.30180        8.21280       -2.30820
O         -6.64110        8.22230       -2.60510
C         -6.72230        8.29760       -3.94170
C         -7.64100        8.27990       -5.00490
C         -6.85820        8.25150       -6.14090
O         -5.52050        8.30410       -5.84430
C         -5.44400        8.33150       -4.50710
C         -4.52290        8.30330       -3.45470
C         -7.20910        8.08390       -7.53600
C         -6.64230        7.14680       -8.31390
C         -5.81560        6.05880       -7.86370
C         -4.98420        5.29950       -8.63280
C         -4.37600        4.21970       -7.94110
C         -3.49130        3.25100       -8.44510
C         -3.14300        3.16570       -9.86800
C         -1.82010        3.01360      -10.28240
C         -1.51630        2.84450      -11.61450
C         -2.50760        2.83410      -12.59680
S         -1.94660        2.62960      -14.26010
C         -3.33030        1.85050      -15.16980
C         -3.69180        0.48900      -14.61200
C         -3.81760        3.03470      -12.17340
F         -4.84180        3.08970      -13.05660
C         -4.13910        3.18000      -10.83840
C         -2.99490        2.33010       -7.53350
C         -3.39830        2.28540       -6.17750
C         -4.35950        3.19090       -5.69890
C         -4.95540        2.98720       -4.37270
C         -5.44400        1.71680       -4.05870
C         -6.01600        1.46280       -2.83450
C         -6.12430        2.46000       -1.86550
S         -6.90170        1.98120       -0.35050
C         -6.06180        2.94510        0.96640
C         -6.92570        4.07590        1.48990
C         -5.66780        3.72900       -2.20530
C         -5.08730        3.99970       -3.43080
F         -5.77860        4.75580       -1.33140
C         -4.78380        4.17230       -6.58320
S         -5.90830        5.44910       -6.21880
C         -2.73890        1.25380       -5.45710
C         -1.91300        0.49610       -6.22740
S         -1.88720        1.03320       -7.89910
C         -1.11340       -0.62940       -5.86280
C         -0.58440       -1.53350       -6.73280
C          0.16480       -2.55610       -6.10260
C          0.80630       -3.64280       -6.71690
C          0.85380       -3.72660       -8.18060
C          1.27380       -2.62060       -8.91710
C          1.26920       -2.63470      -10.29650
C          0.82740       -3.75390      -10.99310
S          0.72140       -3.86610      -12.74850
C          0.72400       -2.12220      -13.29800
C         -0.51860       -1.36900      -12.86230
C          0.45700       -4.87190      -10.24380
F          0.05230       -5.98520      -10.88690
C          0.46870       -4.87540       -8.86580
C          1.40120       -4.56670       -5.87260
C          1.45270       -4.40030       -4.46630
C          0.86280       -3.27990       -3.86060
C          1.06330       -3.01370       -2.42930
C          1.67820       -1.82530       -2.04050
C          2.03520       -1.61870       -0.72630
C          1.76450       -2.57190        0.25080
S          2.32020       -2.23530        1.89720
C          2.99670       -3.84740        2.44320
C          4.04870       -4.38000        1.49150
C          1.06330       -3.70920       -0.13440
C          0.73680       -3.94910       -1.45440
F          0.69660       -4.63410        0.78190
C          0.19790       -2.39460       -4.69640
S         -0.70410       -0.98640       -4.19520
C          2.20630       -5.44340       -3.84820
C          2.67770       -6.34760       -4.72960
S          2.25900       -6.00100       -6.37230
H          6.70600      -10.24590        8.91020
H          6.97500       -7.85290        9.89880
H          6.85930       -3.60050        8.49130
H          8.11950       -2.47000       10.22740
H          9.88800       -1.97100       11.61610
H          8.42900       -1.00700       11.99590
H         10.74830       -1.55440       13.91990
H          9.31020       -0.60210       14.29340
H         10.46000       -0.02460       13.08070
H          5.49760       -6.49500       11.34030
H          3.68720       -6.28950        4.07730
H          2.41710       -7.31660        2.23200
H         -0.65610      -10.96120        3.32570
H         -1.32390      -10.48150        1.75470
H         -2.56330       -9.33180        3.58540
H         -1.66900       -8.15170        2.61530
H         -1.05720       -8.64440        4.19730
H          2.25730       -9.34580        6.71250
H          2.11110       -5.04570        5.46850
H          3.08940       -0.77750        7.43740
H          1.68420        0.74430        8.72210
H          3.02110        1.91660       10.42160
H          5.26540        6.04040        9.08130
H          5.25650        6.27600       10.83880
H          3.26440        7.37780        9.81280
H          2.76450        6.04370       10.86160
H          2.76150        5.84030        9.10660
H          3.29680        3.34080        5.72120
H         -1.46030       -2.36230        3.87230
H         -2.35950       -3.38350        1.82980
H         -4.30730       -2.92410        0.33430
H         -4.59460       -2.81060       -1.41560
H         -3.95760       -0.45950        0.44780
H         -5.52980       -0.79280       -0.28370
H         -4.15770       -0.33490       -1.30260
H          0.24330        0.78270        1.51310
H         -1.53860        1.95790        2.74250
H         -4.66060        5.57860        0.74990
H          0.17360        6.31340        3.17540
H         -2.90020        8.55250       -1.00970
H         -5.68060        7.40590       -0.38910
H         -8.70940        8.24290       -4.96990
H         -3.45450        8.29600       -3.49820
H         -7.94320        8.76250       -7.94580
H         -6.85540        7.14240       -9.37500
H         -4.78220        5.52520       -9.66470
H         -1.02460        3.03440       -9.55430
H         -0.49160        2.71640      -11.92720
H         -4.17850        2.53080      -15.17410
H         -2.93920        1.76700      -16.18420
H         -4.48660        0.04980      -15.21130
H         -2.82960       -0.17340      -14.63420
H         -4.04140        0.56790      -13.58470
H         -5.17840        3.28660      -10.56770
H         -5.38200        0.92790       -4.79260
H         -6.39540        0.48030       -2.60110
H         -5.86420        2.21570        1.75240
H         -5.11220        3.29080        0.56480
H         -7.14690        4.79320        0.70360
H         -7.86630        3.68340        1.87010
H         -6.41000        4.58760        2.30050
H         -4.73880        5.00200       -3.62760
H         -2.86510        1.08480       -4.40270
H         -0.75790       -1.48730       -7.79310
H          1.62350       -1.74020       -8.39930
H          1.61400       -1.76250      -10.82770
H          0.76570       -2.20440      -14.38420
H          1.64080       -1.64550      -12.95370
H         -1.40940       -1.87660      -13.22590
H         -0.58190       -1.30510      -11.77800
H         -0.49830       -0.35820      -13.26600
H          0.14720       -5.75980       -8.33910
H          1.91390       -1.07830       -2.78220
H          2.54750       -0.71570       -0.43280
H          3.42790       -3.61820        3.41800
H          2.17040       -4.54310        2.57530
H          3.61560       -4.60040        0.51750
H          4.84470       -3.65070        1.35640
H          4.47900       -5.29710        1.88950
H          0.20690       -4.85430       -1.70650
H          2.38420       -5.49700       -2.78990
H          3.26140       -7.22390       -4.52520
