226

C         -1.33040      -12.30130        9.64650
C         -1.18070      -12.65830        8.35480
C         -1.59740      -11.64030        7.44830
C         -1.54910      -11.65320        6.04590
C         -0.96910      -12.76800        5.31380
S         -1.84650      -13.58100        4.05340
C         -0.53080      -14.65630        3.72570
C         -0.61440      -15.65990        2.62940
C         -0.33760      -15.00690        1.27310
C          0.52310      -14.38050        4.54470
Cl         2.01480      -15.22850        4.50740
C          0.27660      -13.31380        5.45050
Cl         1.46840      -12.73220        6.54060
C         -2.05160      -10.53890        5.38660
C         -2.56130       -9.41050        6.07140
C         -2.60340       -9.39030        7.47590
C         -3.13790       -8.23970        8.18640
S         -2.55960       -6.62960        7.86370
C         -3.65070       -5.91880        9.00300
C         -3.65210       -4.45200        9.25530
C         -2.52120       -4.05550       10.20670
C         -4.40280       -6.88570        9.59960
C         -4.11980       -8.19990        9.13710
Cl        -5.00830       -9.56530        9.66710
Cl        -5.60020       -6.57050       10.78750
C         -2.11350      -10.51240        8.13340
S         -2.00200      -10.72270        9.85700
C         -2.99050       -8.40280        5.17510
C         -2.80150       -8.72260        3.86340
S         -2.10150      -10.31210        3.65990
C         -3.11800       -7.87170        2.75920
C         -3.25540       -6.51680        2.82920
C         -3.64250       -5.92310        1.60580
C         -3.89700       -4.56440        1.34800
C         -3.79560       -3.56110        2.39380
S         -2.85260       -2.12020        2.13780
C         -3.16320       -1.53100        3.73510
C         -2.59030       -0.23690        4.19800
C         -1.06330       -0.23730        4.13140
C         -3.95380       -2.40990        4.41280
Cl        -4.47880       -2.18290        6.03110
C         -4.31990       -3.55720        3.65720
Cl        -5.39550       -4.74620        4.27550
C         -4.19580       -4.22560        0.03540
C         -4.26310       -5.17420       -1.01450
C         -4.05820       -6.54000       -0.74370
C         -4.14710       -7.52840       -1.80400
S         -2.86740       -8.67370       -2.07840
C         -3.67380       -9.36650       -3.44190
C         -3.04440      -10.44830       -4.24820
C         -2.24770       -9.86260       -5.41680
C         -4.86380       -8.73770       -3.66040
C         -5.13960       -7.70060       -2.73070
Cl        -6.61870       -6.82730       -2.74080
Cl        -5.93910       -9.14540       -4.93480
C         -3.74130       -6.87980        0.56480
S         -3.41380       -8.48770        1.14980
C         -4.49140       -4.55740       -2.26890
C         -4.64530       -3.20450       -2.18810
S         -4.50900       -2.61750       -0.54460
C         -4.79200       -2.26930       -3.25570
C         -4.77060       -2.51390       -4.59880
C         -4.74750       -1.33720       -5.38900
C         -4.55730       -1.21240       -6.78110
C         -4.49030       -2.37440       -7.64910
S         -3.50950       -3.76140       -7.27190
C         -3.99490       -4.60210       -8.70440
C         -3.52400       -5.98820       -8.97400
C         -4.18820       -6.98880       -8.02530
C         -4.86490       -3.83970       -9.42460
Cl        -5.57700       -4.33440      -10.90530
C         -5.14130       -2.57570       -8.83640
Cl        -6.26100       -1.47660       -9.52350
C         -4.37660        0.07570       -7.27830
C         -4.49230        1.22850       -6.46370
C         -4.73250        1.10900       -5.08670
C         -4.73150        2.26960       -4.20610
S         -6.07020        2.64710       -3.16690
C         -5.27980        4.04880       -2.52960
C         -5.94830        4.93430       -1.53710
C         -6.76810        6.02220       -2.23490
C         -4.05380        4.20750       -3.10430
C         -3.73270        3.18680       -4.03730
Cl        -2.19270        3.05390       -4.78350
Cl        -3.00180        5.52200       -2.75950
C         -4.82540       -0.17600       -4.58080
S         -4.88710       -0.56230       -2.88900
C         -4.14280        2.40680       -7.16060
C         -3.64430        2.18010       -8.41120
S         -3.79050        0.49650       -8.87060
C         -2.79410        3.14840       -9.05340
S         -2.47060        3.44980      -10.72660
C         -1.24560        4.61710      -10.31390
C         -0.50710        5.29240      -11.36170
O          0.37370        6.10090      -11.18430
O         -0.90560        4.91700      -12.59270
C         -1.09740        4.77090       -8.94090
C         -1.99310        3.92450       -8.25780
C         -0.10570        5.52340       -8.20600
C         -0.30120        5.73620       -6.88940
C          0.60640        6.07640       -5.84320
C          0.32140        5.74950       -4.54520
C          1.38710        5.96620       -3.64890
C          1.43680        5.63120       -2.28580
C          0.35060        4.89930       -1.64640
S         -0.11630        3.32900       -2.22620
C         -1.36140        3.16660       -1.03780
C         -2.22440        1.95330       -0.96240
C         -1.71330        0.96600        0.08890
C         -1.38370        4.26550       -0.23120
Cl        -2.50650        4.47570        1.04830
C         -0.41350        5.24700       -0.56860
Cl        -0.27970        6.74500        0.25480
C          2.59330        5.96980       -1.60440
C          3.69730        6.60760       -2.22570
C          3.66830        6.87910       -3.60670
C          4.82500        7.43570       -4.28760
S          4.68510        8.83920       -5.30320
C          6.37100        8.82480       -5.68830
C          6.95460        9.81620       -6.63310
C          6.79080        9.34770       -8.08110
C          6.99000        7.77860       -5.07110
C          6.11880        6.99130       -4.27180
Cl         6.64890        5.57950       -3.45050
Cl         8.66370        7.43140       -5.22350
C          2.50190        6.55910       -4.29080
S          2.21850        6.73730       -6.00630
C          4.74280        6.85210       -1.30000
C          4.48460        6.37550       -0.04900
S          2.90410        5.62880        0.07010
C          5.33380        6.37190        1.09550
C          5.05280        5.82710        2.31300
C          6.12710        5.90760        3.23090
C          6.16370        5.45360        4.55960
C          5.04980        4.70910        5.12150
S          4.30820        5.16810        6.62530
C          3.16100        3.87610        6.54430
C          2.10520        3.70870        7.58070
C          0.85270        4.51140        7.22000
C          3.35200        3.14290        5.41110
Cl         2.40150        1.77980        4.98520
C          4.42460        3.60680        4.60450
Cl         4.91930        2.79520        3.17380
C          7.31010        5.74230        5.28950
C          8.42380        6.41960        4.73890
C          8.40540        6.83040        3.39610
C          9.53630        7.51420        2.78870
S         10.19690        8.96360        3.48740
C         11.37000        9.13300        2.22660
C         12.30250       10.29290        2.18840
C         11.66130       11.48560        1.47490
C         11.24040        8.12200        1.32240
C         10.20480        7.20100        1.63780
Cl         9.90350        5.80190        0.69500
Cl        12.23090        7.95070       -0.06800
C          7.24870        6.56860        2.67220
S          6.94770        7.04450        1.02460
C          9.48110        6.54430        5.68730
C          9.17970        5.99810        6.88260
S          7.60270        5.29050        6.94540
H         -1.09250      -12.87610       10.52020
H         -0.79720      -13.61110        8.04000
H          0.11980      -16.44530        2.81660
H         -1.61050      -16.10590        2.62010
H         -0.40540      -15.74800        0.48130
H         -1.06190      -14.21910        1.07990
H          0.65900      -14.57290        1.26040
H         -4.61350       -4.17520        9.69160
H         -3.53270       -3.92110        8.30900
H         -2.63370       -4.56660       11.15970
H         -1.55760       -4.32330        9.77970
H         -2.54020       -2.98320       10.38160
H         -3.44570       -7.48290        5.48920
H         -3.05270       -5.95880        3.72290
H         -2.97550        0.57000        3.56890
H         -2.92070       -0.05990        5.22280
H         -0.65530       -1.02170        4.76390
H         -0.73060       -0.40630        3.11000
H         -0.67360        0.71860        4.47100
H         -3.82880      -11.10180       -4.63530
H         -2.38170      -11.03460       -3.61040
H         -2.90300       -9.28870       -6.06660
H         -1.79320      -10.66160       -5.99590
H         -1.46220       -9.20770       -5.04760
H         -4.51040       -5.09370       -3.19830
H         -4.73340       -3.50630       -5.00540
H         -2.44030       -6.03730       -8.84760
H         -3.76630       -6.24140      -10.00720
H         -3.93720       -6.75500       -6.99290
H         -5.26920       -6.95570       -8.13540
H         -3.84800       -7.99630       -8.24980
H         -5.18380        5.39810       -0.91020
H         -6.60290        4.33530       -0.90240
H         -7.53960        5.57340       -2.85610
H         -6.12640        6.63360       -2.86420
H         -7.24280        6.66210       -1.49630
H         -4.21090        3.38680       -6.72750
H         -0.38800        5.38700      -13.26370
H         -1.99170        3.80390       -7.19380
H          0.79830        5.81620       -8.71760
H         -1.27430        5.49400       -6.48100
H         -0.62110        5.33230       -4.24380
H         -3.24100        2.25990       -0.70390
H         -2.24940        1.46510       -1.93770
H         -1.68870        1.43870        1.06710
H         -0.70880        0.63340       -0.16080
H         -2.36730        0.09900        0.13440
H          6.45530       10.77780       -6.50390
H          8.01510        9.93710       -6.40480
H          7.29780        8.39760       -8.22890
H          7.21760       10.08020       -8.76080
H          5.73760        9.22020       -8.31940
H          5.65680        7.36170       -1.54520
H          4.09780        5.39080        2.54270
H          2.48890        4.04520        8.54490
H          1.85040        2.64950        7.65380
H          0.45670        4.18180        6.26290
H          0.08880        4.37280        7.98030
H          1.09020        5.57020        7.15190
H         13.20950        9.99540        1.65880
H         12.56830       10.57860        3.20760
H         12.35280       12.32350        1.45340
H         11.40420       11.21870        0.45310
H         10.75560       11.79260        1.99260
H         10.41970        7.01920        5.46930
H          9.79370        5.95690        7.76090
