
  xtb     03012220563D
 energy: -451.870716163943 gnorm: 0.000226701711 xtb: 6.4.1 (unknown)
226251  0     0  0            999 V2000
   -1.3304  -12.3013    9.6465 C   0  0  0  0  0  0  0  0  0  0  0  0
   -1.1807  -12.6583    8.3548 C   0  0  0  0  0  0  0  0  0  0  0  0
   -1.5974  -11.6403    7.4483 C   0  0  0  0  0  0  0  0  0  0  0  0
   -1.5491  -11.6532    6.0459 C   0  0  0  0  0  0  0  0  0  0  0  0
   -0.9691  -12.7680    5.3138 C   0  0  0  0  0  0  0  0  0  0  0  0
   -1.8465  -13.5810    4.0534 S   0  0  0  0  0  0  0  0  0  0  0  0
   -0.5308  -14.6563    3.7257 C   0  0  0  0  0  0  0  0  0  0  0  0
   -0.6144  -15.6599    2.6294 C   0  0  0  0  0  0  0  0  0  0  0  0
   -0.3376  -15.0069    1.2731 C   0  0  0  0  0  0  0  0  0  0  0  0
    0.5231  -14.3805    4.5447 C   0  0  0  0  0  0  0  0  0  0  0  0
    2.0148  -15.2285    4.5074 Cl  0  0  0  0  0  0  0  0  0  0  0  0
    0.2766  -13.3138    5.4505 C   0  0  0  0  0  0  0  0  0  0  0  0
    1.4684  -12.7322    6.5406 Cl  0  0  0  0  0  0  0  0  0  0  0  0
   -2.0516  -10.5389    5.3866 C   0  0  0  0  0  0  0  0  0  0  0  0
   -2.5613   -9.4105    6.0714 C   0  0  0  0  0  0  0  0  0  0  0  0
   -2.6034   -9.3903    7.4759 C   0  0  0  0  0  0  0  0  0  0  0  0
   -3.1379   -8.2397    8.1864 C   0  0  0  0  0  0  0  0  0  0  0  0
   -2.5596   -6.6296    7.8637 S   0  0  0  0  0  0  0  0  0  0  0  0
   -3.6507   -5.9188    9.0030 C   0  0  0  0  0  0  0  0  0  0  0  0
   -3.6521   -4.4520    9.2553 C   0  0  0  0  0  0  0  0  0  0  0  0
   -2.5212   -4.0555   10.2067 C   0  0  0  0  0  0  0  0  0  0  0  0
   -4.4028   -6.8857    9.5996 C   0  0  0  0  0  0  0  0  0  0  0  0
   -4.1198   -8.1999    9.1371 C   0  0  0  0  0  0  0  0  0  0  0  0
   -5.0083   -9.5653    9.6671 Cl  0  0  0  0  0  0  0  0  0  0  0  0
   -5.6002   -6.5705   10.7875 Cl  0  0  0  0  0  0  0  0  0  0  0  0
   -2.1135  -10.5124    8.1334 C   0  0  0  0  0  0  0  0  0  0  0  0
   -2.0020  -10.7227    9.8570 S   0  0  0  0  0  0  0  0  0  0  0  0
   -2.9905   -8.4028    5.1751 C   0  0  0  0  0  0  0  0  0  0  0  0
   -2.8015   -8.7226    3.8634 C   0  0  0  0  0  0  0  0  0  0  0  0
   -2.1015  -10.3121    3.6599 S   0  0  0  0  0  0  0  0  0  0  0  0
   -3.1180   -7.8717    2.7592 C   0  0  0  0  0  0  0  0  0  0  0  0
   -3.2554   -6.5168    2.8292 C   0  0  0  0  0  0  0  0  0  0  0  0
   -3.6425   -5.9231    1.6058 C   0  0  0  0  0  0  0  0  0  0  0  0
   -3.8970   -4.5644    1.3480 C   0  0  0  0  0  0  0  0  0  0  0  0
   -3.7956   -3.5611    2.3938 C   0  0  0  0  0  0  0  0  0  0  0  0
   -2.8526   -2.1202    2.1378 S   0  0  0  0  0  0  0  0  0  0  0  0
   -3.1632   -1.5310    3.7351 C   0  0  0  0  0  0  0  0  0  0  0  0
   -2.5903   -0.2369    4.1980 C   0  0  0  0  0  0  0  0  0  0  0  0
   -1.0633   -0.2373    4.1314 C   0  0  0  0  0  0  0  0  0  0  0  0
   -3.9538   -2.4099    4.4128 C   0  0  0  0  0  0  0  0  0  0  0  0
   -4.4788   -2.1829    6.0311 Cl  0  0  0  0  0  0  0  0  0  0  0  0
   -4.3199   -3.5572    3.6572 C   0  0  0  0  0  0  0  0  0  0  0  0
   -5.3955   -4.7462    4.2755 Cl  0  0  0  0  0  0  0  0  0  0  0  0
   -4.1958   -4.2256    0.0354 C   0  0  0  0  0  0  0  0  0  0  0  0
   -4.2631   -5.1742   -1.0145 C   0  0  0  0  0  0  0  0  0  0  0  0
   -4.0582   -6.5400   -0.7437 C   0  0  0  0  0  0  0  0  0  0  0  0
   -4.1471   -7.5284   -1.8040 C   0  0  0  0  0  0  0  0  0  0  0  0
   -2.8674   -8.6737   -2.0784 S   0  0  0  0  0  0  0  0  0  0  0  0
   -3.6738   -9.3665   -3.4419 C   0  0  0  0  0  0  0  0  0  0  0  0
   -3.0444  -10.4483   -4.2482 C   0  0  0  0  0  0  0  0  0  0  0  0
   -2.2477   -9.8626   -5.4168 C   0  0  0  0  0  0  0  0  0  0  0  0
   -4.8638   -8.7377   -3.6604 C   0  0  0  0  0  0  0  0  0  0  0  0
   -5.1396   -7.7006   -2.7307 C   0  0  0  0  0  0  0  0  0  0  0  0
   -6.6187   -6.8273   -2.7408 Cl  0  0  0  0  0  0  0  0  0  0  0  0
   -5.9391   -9.1454   -4.9348 Cl  0  0  0  0  0  0  0  0  0  0  0  0
   -3.7413   -6.8798    0.5648 C   0  0  0  0  0  0  0  0  0  0  0  0
   -3.4138   -8.4877    1.1498 S   0  0  0  0  0  0  0  0  0  0  0  0
   -4.4914   -4.5574   -2.2689 C   0  0  0  0  0  0  0  0  0  0  0  0
   -4.6453   -3.2045   -2.1881 C   0  0  0  0  0  0  0  0  0  0  0  0
   -4.5090   -2.6175   -0.5446 S   0  0  0  0  0  0  0  0  0  0  0  0
   -4.7920   -2.2693   -3.2557 C   0  0  0  0  0  0  0  0  0  0  0  0
   -4.7706   -2.5139   -4.5988 C   0  0  0  0  0  0  0  0  0  0  0  0
   -4.7475   -1.3372   -5.3890 C   0  0  0  0  0  0  0  0  0  0  0  0
   -4.5573   -1.2124   -6.7811 C   0  0  0  0  0  0  0  0  0  0  0  0
   -4.4903   -2.3744   -7.6491 C   0  0  0  0  0  0  0  0  0  0  0  0
   -3.5095   -3.7614   -7.2719 S   0  0  0  0  0  0  0  0  0  0  0  0
   -3.9949   -4.6021   -8.7044 C   0  0  0  0  0  0  0  0  0  0  0  0
   -3.5240   -5.9882   -8.9740 C   0  0  0  0  0  0  0  0  0  0  0  0
   -4.1882   -6.9888   -8.0253 C   0  0  0  0  0  0  0  0  0  0  0  0
   -4.8649   -3.8397   -9.4246 C   0  0  0  0  0  0  0  0  0  0  0  0
   -5.5770   -4.3344  -10.9053 Cl  0  0  0  0  0  0  0  0  0  0  0  0
   -5.1413   -2.5757   -8.8364 C   0  0  0  0  0  0  0  0  0  0  0  0
   -6.2610   -1.4766   -9.5235 Cl  0  0  0  0  0  0  0  0  0  0  0  0
   -4.3766    0.0757   -7.2783 C   0  0  0  0  0  0  0  0  0  0  0  0
   -4.4923    1.2285   -6.4637 C   0  0  0  0  0  0  0  0  0  0  0  0
   -4.7325    1.1090   -5.0867 C   0  0  0  0  0  0  0  0  0  0  0  0
   -4.7315    2.2696   -4.2061 C   0  0  0  0  0  0  0  0  0  0  0  0
   -6.0702    2.6471   -3.1669 S   0  0  0  0  0  0  0  0  0  0  0  0
   -5.2798    4.0488   -2.5296 C   0  0  0  0  0  0  0  0  0  0  0  0
   -5.9483    4.9343   -1.5371 C   0  0  0  0  0  0  0  0  0  0  0  0
   -6.7681    6.0222   -2.2349 C   0  0  0  0  0  0  0  0  0  0  0  0
   -4.0538    4.2075   -3.1043 C   0  0  0  0  0  0  0  0  0  0  0  0
   -3.7327    3.1868   -4.0373 C   0  0  0  0  0  0  0  0  0  0  0  0
   -2.1927    3.0539   -4.7835 Cl  0  0  0  0  0  0  0  0  0  0  0  0
   -3.0018    5.5220   -2.7595 Cl  0  0  0  0  0  0  0  0  0  0  0  0
   -4.8254   -0.1760   -4.5808 C   0  0  0  0  0  0  0  0  0  0  0  0
   -4.8871   -0.5623   -2.8890 S   0  0  0  0  0  0  0  0  0  0  0  0
   -4.1428    2.4068   -7.1606 C   0  0  0  0  0  0  0  0  0  0  0  0
   -3.6443    2.1801   -8.4112 C   0  0  0  0  0  0  0  0  0  0  0  0
   -3.7905    0.4965   -8.8706 S   0  0  0  0  0  0  0  0  0  0  0  0
   -2.7941    3.1484   -9.0534 C   0  0  0  0  0  0  0  0  0  0  0  0
   -2.4706    3.4498  -10.7266 S   0  0  0  0  0  0  0  0  0  0  0  0
   -1.2456    4.6171  -10.3139 C   0  0  0  0  0  0  0  0  0  0  0  0
   -0.5071    5.2924  -11.3617 C   0  0  0  0  0  0  0  0  0  0  0  0
    0.3737    6.1009  -11.1843 O   0  0  0  0  0  0  0  0  0  0  0  0
   -0.9056    4.9170  -12.5927 O   0  0  0  0  0  0  0  0  0  0  0  0
   -1.0974    4.7709   -8.9409 C   0  0  0  0  0  0  0  0  0  0  0  0
   -1.9931    3.9245   -8.2578 C   0  0  0  0  0  0  0  0  0  0  0  0
   -0.1057    5.5234   -8.2060 C   0  0  0  0  0  0  0  0  0  0  0  0
   -0.3012    5.7362   -6.8894 C   0  0  0  0  0  0  0  0  0  0  0  0
    0.6064    6.0764   -5.8432 C   0  0  0  0  0  0  0  0  0  0  0  0
    0.3214    5.7495   -4.5452 C   0  0  0  0  0  0  0  0  0  0  0  0
    1.3871    5.9662   -3.6489 C   0  0  0  0  0  0  0  0  0  0  0  0
    1.4368    5.6312   -2.2858 C   0  0  0  0  0  0  0  0  0  0  0  0
    0.3506    4.8993   -1.6464 C   0  0  0  0  0  0  0  0  0  0  0  0
   -0.1163    3.3290   -2.2262 S   0  0  0  0  0  0  0  0  0  0  0  0
   -1.3614    3.1666   -1.0378 C   0  0  0  0  0  0  0  0  0  0  0  0
   -2.2244    1.9533   -0.9624 C   0  0  0  0  0  0  0  0  0  0  0  0
   -1.7133    0.9660    0.0889 C   0  0  0  0  0  0  0  0  0  0  0  0
   -1.3837    4.2655   -0.2312 C   0  0  0  0  0  0  0  0  0  0  0  0
   -2.5065    4.4757    1.0483 Cl  0  0  0  0  0  0  0  0  0  0  0  0
   -0.4135    5.2470   -0.5686 C   0  0  0  0  0  0  0  0  0  0  0  0
   -0.2797    6.7450    0.2548 Cl  0  0  0  0  0  0  0  0  0  0  0  0
    2.5933    5.9698   -1.6044 C   0  0  0  0  0  0  0  0  0  0  0  0
    3.6973    6.6076   -2.2257 C   0  0  0  0  0  0  0  0  0  0  0  0
    3.6683    6.8791   -3.6067 C   0  0  0  0  0  0  0  0  0  0  0  0
    4.8250    7.4357   -4.2876 C   0  0  0  0  0  0  0  0  0  0  0  0
    4.6851    8.8392   -5.3032 S   0  0  0  0  0  0  0  0  0  0  0  0
    6.3710    8.8248   -5.6883 C   0  0  0  0  0  0  0  0  0  0  0  0
    6.9546    9.8162   -6.6331 C   0  0  0  0  0  0  0  0  0  0  0  0
    6.7908    9.3477   -8.0811 C   0  0  0  0  0  0  0  0  0  0  0  0
    6.9900    7.7786   -5.0711 C   0  0  0  0  0  0  0  0  0  0  0  0
    6.1188    6.9913   -4.2718 C   0  0  0  0  0  0  0  0  0  0  0  0
    6.6489    5.5795   -3.4505 Cl  0  0  0  0  0  0  0  0  0  0  0  0
    8.6637    7.4314   -5.2235 Cl  0  0  0  0  0  0  0  0  0  0  0  0
    2.5019    6.5591   -4.2908 C   0  0  0  0  0  0  0  0  0  0  0  0
    2.2185    6.7373   -6.0063 S   0  0  0  0  0  0  0  0  0  0  0  0
    4.7428    6.8521   -1.3000 C   0  0  0  0  0  0  0  0  0  0  0  0
    4.4846    6.3755   -0.0490 C   0  0  0  0  0  0  0  0  0  0  0  0
    2.9041    5.6288    0.0701 S   0  0  0  0  0  0  0  0  0  0  0  0
    5.3338    6.3719    1.0955 C   0  0  0  0  0  0  0  0  0  0  0  0
    5.0528    5.8271    2.3130 C   0  0  0  0  0  0  0  0  0  0  0  0
    6.1271    5.9076    3.2309 C   0  0  0  0  0  0  0  0  0  0  0  0
    6.1637    5.4536    4.5596 C   0  0  0  0  0  0  0  0  0  0  0  0
    5.0498    4.7091    5.1215 C   0  0  0  0  0  0  0  0  0  0  0  0
    4.3082    5.1681    6.6253 S   0  0  0  0  0  0  0  0  0  0  0  0
    3.1610    3.8761    6.5443 C   0  0  0  0  0  0  0  0  0  0  0  0
    2.1052    3.7087    7.5807 C   0  0  0  0  0  0  0  0  0  0  0  0
    0.8527    4.5114    7.2200 C   0  0  0  0  0  0  0  0  0  0  0  0
    3.3520    3.1429    5.4111 C   0  0  0  0  0  0  0  0  0  0  0  0
    2.4015    1.7798    4.9852 Cl  0  0  0  0  0  0  0  0  0  0  0  0
    4.4246    3.6068    4.6045 C   0  0  0  0  0  0  0  0  0  0  0  0
    4.9193    2.7952    3.1738 Cl  0  0  0  0  0  0  0  0  0  0  0  0
    7.3101    5.7423    5.2895 C   0  0  0  0  0  0  0  0  0  0  0  0
    8.4238    6.4196    4.7389 C   0  0  0  0  0  0  0  0  0  0  0  0
    8.4054    6.8304    3.3961 C   0  0  0  0  0  0  0  0  0  0  0  0
    9.5363    7.5142    2.7887 C   0  0  0  0  0  0  0  0  0  0  0  0
   10.1969    8.9636    3.4874 S   0  0  0  0  0  0  0  0  0  0  0  0
   11.3700    9.1330    2.2266 C   0  0  0  0  0  0  0  0  0  0  0  0
   12.3025   10.2929    2.1884 C   0  0  0  0  0  0  0  0  0  0  0  0
   11.6613   11.4856    1.4749 C   0  0  0  0  0  0  0  0  0  0  0  0
   11.2404    8.1220    1.3224 C   0  0  0  0  0  0  0  0  0  0  0  0
   10.2048    7.2010    1.6378 C   0  0  0  0  0  0  0  0  0  0  0  0
    9.9035    5.8019    0.6950 Cl  0  0  0  0  0  0  0  0  0  0  0  0
   12.2309    7.9507   -0.0680 Cl  0  0  0  0  0  0  0  0  0  0  0  0
    7.2487    6.5686    2.6722 C   0  0  0  0  0  0  0  0  0  0  0  0
    6.9477    7.0445    1.0246 S   0  0  0  0  0  0  0  0  0  0  0  0
    9.4811    6.5443    5.6873 C   0  0  0  0  0  0  0  0  0  0  0  0
    9.1797    5.9981    6.8826 C   0  0  0  0  0  0  0  0  0  0  0  0
    7.6027    5.2905    6.9454 S   0  0  0  0  0  0  0  0  0  0  0  0
   -1.0925  -12.8761   10.5202 H   0  0  0  0  0  0  0  0  0  0  0  0
   -0.7972  -13.6111    8.0400 H   0  0  0  0  0  0  0  0  0  0  0  0
    0.1198  -16.4453    2.8166 H   0  0  0  0  0  0  0  0  0  0  0  0
   -1.6105  -16.1059    2.6201 H   0  0  0  0  0  0  0  0  0  0  0  0
   -0.4054  -15.7480    0.4813 H   0  0  0  0  0  0  0  0  0  0  0  0
   -1.0619  -14.2191    1.0799 H   0  0  0  0  0  0  0  0  0  0  0  0
    0.6590  -14.5729    1.2604 H   0  0  0  0  0  0  0  0  0  0  0  0
   -4.6135   -4.1752    9.6916 H   0  0  0  0  0  0  0  0  0  0  0  0
   -3.5327   -3.9211    8.3090 H   0  0  0  0  0  0  0  0  0  0  0  0
   -2.6337   -4.5666   11.1597 H   0  0  0  0  0  0  0  0  0  0  0  0
   -1.5576   -4.3233    9.7797 H   0  0  0  0  0  0  0  0  0  0  0  0
   -2.5402   -2.9832   10.3816 H   0  0  0  0  0  0  0  0  0  0  0  0
   -3.4457   -7.4829    5.4892 H   0  0  0  0  0  0  0  0  0  0  0  0
   -3.0527   -5.9588    3.7229 H   0  0  0  0  0  0  0  0  0  0  0  0
   -2.9755    0.5700    3.5689 H   0  0  0  0  0  0  0  0  0  0  0  0
   -2.9207   -0.0599    5.2228 H   0  0  0  0  0  0  0  0  0  0  0  0
   -0.6553   -1.0217    4.7639 H   0  0  0  0  0  0  0  0  0  0  0  0
   -0.7306   -0.4063    3.1100 H   0  0  0  0  0  0  0  0  0  0  0  0
   -0.6736    0.7186    4.4710 H   0  0  0  0  0  0  0  0  0  0  0  0
   -3.8288  -11.1018   -4.6353 H   0  0  0  0  0  0  0  0  0  0  0  0
   -2.3817  -11.0346   -3.6104 H   0  0  0  0  0  0  0  0  0  0  0  0
   -2.9030   -9.2887   -6.0666 H   0  0  0  0  0  0  0  0  0  0  0  0
   -1.7932  -10.6616   -5.9959 H   0  0  0  0  0  0  0  0  0  0  0  0
   -1.4622   -9.2077   -5.0476 H   0  0  0  0  0  0  0  0  0  0  0  0
   -4.5104   -5.0937   -3.1983 H   0  0  0  0  0  0  0  0  0  0  0  0
   -4.7334   -3.5063   -5.0054 H   0  0  0  0  0  0  0  0  0  0  0  0
   -2.4403   -6.0373   -8.8476 H   0  0  0  0  0  0  0  0  0  0  0  0
   -3.7663   -6.2414  -10.0072 H   0  0  0  0  0  0  0  0  0  0  0  0
   -3.9372   -6.7550   -6.9929 H   0  0  0  0  0  0  0  0  0  0  0  0
   -5.2692   -6.9557   -8.1354 H   0  0  0  0  0  0  0  0  0  0  0  0
   -3.8480   -7.9963   -8.2498 H   0  0  0  0  0  0  0  0  0  0  0  0
   -5.1838    5.3981   -0.9102 H   0  0  0  0  0  0  0  0  0  0  0  0
   -6.6029    4.3353   -0.9024 H   0  0  0  0  0  0  0  0  0  0  0  0
   -7.5396    5.5734   -2.8561 H   0  0  0  0  0  0  0  0  0  0  0  0
   -6.1264    6.6336   -2.8642 H   0  0  0  0  0  0  0  0  0  0  0  0
   -7.2428    6.6621   -1.4963 H   0  0  0  0  0  0  0  0  0  0  0  0
   -4.2109    3.3868   -6.7275 H   0  0  0  0  0  0  0  0  0  0  0  0
   -0.3880    5.3870  -13.2637 H   0  0  0  0  0  0  0  0  0  0  0  0
   -1.9917    3.8039   -7.1938 H   0  0  0  0  0  0  0  0  0  0  0  0
    0.7983    5.8162   -8.7176 H   0  0  0  0  0  0  0  0  0  0  0  0
   -1.2743    5.4940   -6.4810 H   0  0  0  0  0  0  0  0  0  0  0  0
   -0.6211    5.3323   -4.2438 H   0  0  0  0  0  0  0  0  0  0  0  0
   -3.2410    2.2599   -0.7039 H   0  0  0  0  0  0  0  0  0  0  0  0
   -2.2494    1.4651   -1.9377 H   0  0  0  0  0  0  0  0  0  0  0  0
   -1.6887    1.4387    1.0671 H   0  0  0  0  0  0  0  0  0  0  0  0
   -0.7088    0.6334   -0.1608 H   0  0  0  0  0  0  0  0  0  0  0  0
   -2.3673    0.0990    0.1344 H   0  0  0  0  0  0  0  0  0  0  0  0
    6.4553   10.7778   -6.5039 H   0  0  0  0  0  0  0  0  0  0  0  0
    8.0151    9.9371   -6.4048 H   0  0  0  0  0  0  0  0  0  0  0  0
    7.2978    8.3976   -8.2289 H   0  0  0  0  0  0  0  0  0  0  0  0
    7.2176   10.0802   -8.7608 H   0  0  0  0  0  0  0  0  0  0  0  0
    5.7376    9.2202   -8.3194 H   0  0  0  0  0  0  0  0  0  0  0  0
    5.6568    7.3617   -1.5452 H   0  0  0  0  0  0  0  0  0  0  0  0
    4.0978    5.3908    2.5427 H   0  0  0  0  0  0  0  0  0  0  0  0
    2.4889    4.0452    8.5449 H   0  0  0  0  0  0  0  0  0  0  0  0
    1.8504    2.6495    7.6538 H   0  0  0  0  0  0  0  0  0  0  0  0
    0.4567    4.1818    6.2629 H   0  0  0  0  0  0  0  0  0  0  0  0
    0.0888    4.3728    7.9803 H   0  0  0  0  0  0  0  0  0  0  0  0
    1.0902    5.5702    7.1519 H   0  0  0  0  0  0  0  0  0  0  0  0
   13.2095    9.9954    1.6588 H   0  0  0  0  0  0  0  0  0  0  0  0
   12.5683   10.5786    3.2076 H   0  0  0  0  0  0  0  0  0  0  0  0
   12.3528   12.3235    1.4534 H   0  0  0  0  0  0  0  0  0  0  0  0
   11.4042   11.2187    0.4531 H   0  0  0  0  0  0  0  0  0  0  0  0
   10.7556   11.7926    1.9926 H   0  0  0  0  0  0  0  0  0  0  0  0
   10.4197    7.0192    5.4693 H   0  0  0  0  0  0  0  0  0  0  0  0
    9.7937    5.9569    7.7609 H   0  0  0  0  0  0  0  0  0  0  0  0
  1  2  2  0  0  0  0
  2  3  1  0  0  0  0
  3  4  2  0  0  0  0
  4  5  1  0  0  0  0
  5  6  1  0  0  0  0
  6  7  1  0  0  0  0
  7  8  1  0  0  0  0
  8  9  1  0  0  0  0
  7 10  2  0  0  0  0
 10 11  1  0  0  0  0
 10 12  1  0  0  0  0
 12 13  1  0  0  0  0
  4 14  1  0  0  0  0
 14 15  2  0  0  0  0
 15 16  1  0  0  0  0
 16 17  1  0  0  0  0
 17 18  1  0  0  0  0
 18 19  1  0  0  0  0
 19 20  1  0  0  0  0
 20 21  1  0  0  0  0
 19 22  2  0  0  0  0
 22 23  1  0  0  0  0
 23 24  1  0  0  0  0
 22 25  1  0  0  0  0
 16 26  2  0  0  0  0
 26 27  1  0  0  0  0
 15 28  1  0  0  0  0
 28 29  2  0  0  0  0
 29 30  1  0  0  0  0
 29 31  1  0  0  0  0
 31 32  2  0  0  0  0
 32 33  1  0  0  0  0
 33 34  2  0  0  0  0
 34 35  1  0  0  0  0
 35 36  1  0  0  0  0
 36 37  1  0  0  0  0
 37 38  1  0  0  0  0
 38 39  1  0  0  0  0
 37 40  2  0  0  0  0
 40 41  1  0  0  0  0
 40 42  1  0  0  0  0
 42 43  1  0  0  0  0
 34 44  1  0  0  0  0
 44 45  2  0  0  0  0
 45 46  1  0  0  0  0
 46 47  1  0  0  0  0
 47 48  1  0  0  0  0
 48 49  1  0  0  0  0
 49 50  1  0  0  0  0
 50 51  1  0  0  0  0
 49 52  2  0  0  0  0
 52 53  1  0  0  0  0
 53 54  1  0  0  0  0
 52 55  1  0  0  0  0
 46 56  2  0  0  0  0
 56 57  1  0  0  0  0
 45 58  1  0  0  0  0
 58 59  2  0  0  0  0
 59 60  1  0  0  0  0
 59 61  1  0  0  0  0
 61 62  2  0  0  0  0
 62 63  1  0  0  0  0
 63 64  2  0  0  0  0
 64 65  1  0  0  0  0
 65 66  1  0  0  0  0
 66 67  1  0  0  0  0
 67 68  1  0  0  0  0
 68 69  1  0  0  0  0
 67 70  2  0  0  0  0
 70 71  1  0  0  0  0
 70 72  1  0  0  0  0
 72 73  1  0  0  0  0
 64 74  1  0  0  0  0
 74 75  2  0  0  0  0
 75 76  1  0  0  0  0
 76 77  1  0  0  0  0
 77 78  1  0  0  0  0
 78 79  1  0  0  0  0
 79 80  1  0  0  0  0
 80 81  1  0  0  0  0
 79 82  2  0  0  0  0
 82 83  1  0  0  0  0
 83 84  1  0  0  0  0
 82 85  1  0  0  0  0
 76 86  2  0  0  0  0
 86 87  1  0  0  0  0
 75 88  1  0  0  0  0
 88 89  2  0  0  0  0
 89 90  1  0  0  0  0
 89 91  1  0  0  0  0
 91 92  1  0  0  0  0
 92 93  1  0  0  0  0
 93 94  1  0  0  0  0
 94 95  2  0  0  0  0
 94 96  1  0  0  0  0
 93 97  2  0  0  0  0
 97 98  1  0  0  0  0
 97 99  1  0  0  0  0
 99100  2  0  0  0  0
100101  1  0  0  0  0
101102  2  0  0  0  0
102103  1  0  0  0  0
103104  2  0  0  0  0
104105  1  0  0  0  0
105106  1  0  0  0  0
106107  1  0  0  0  0
107108  1  0  0  0  0
108109  1  0  0  0  0
107110  2  0  0  0  0
110111  1  0  0  0  0
110112  1  0  0  0  0
112113  1  0  0  0  0
104114  1  0  0  0  0
114115  2  0  0  0  0
115116  1  0  0  0  0
116117  1  0  0  0  0
117118  1  0  0  0  0
118119  1  0  0  0  0
119120  1  0  0  0  0
120121  1  0  0  0  0
119122  2  0  0  0  0
122123  1  0  0  0  0
123124  1  0  0  0  0
122125  1  0  0  0  0
116126  2  0  0  0  0
126127  1  0  0  0  0
115128  1  0  0  0  0
128129  2  0  0  0  0
129130  1  0  0  0  0
129131  1  0  0  0  0
131132  2  0  0  0  0
132133  1  0  0  0  0
133134  2  0  0  0  0
134135  1  0  0  0  0
135136  1  0  0  0  0
136137  1  0  0  0  0
137138  1  0  0  0  0
138139  1  0  0  0  0
137140  2  0  0  0  0
140141  1  0  0  0  0
140142  1  0  0  0  0
142143  1  0  0  0  0
134144  1  0  0  0  0
144145  2  0  0  0  0
145146  1  0  0  0  0
146147  1  0  0  0  0
147148  1  0  0  0  0
148149  1  0  0  0  0
149150  1  0  0  0  0
150151  1  0  0  0  0
149152  2  0  0  0  0
152153  1  0  0  0  0
153154  1  0  0  0  0
152155  1  0  0  0  0
146156  2  0  0  0  0
156157  1  0  0  0  0
145158  1  0  0  0  0
158159  2  0  0  0  0
159160  1  0  0  0  0
 27  1  1  0  0  0  0
 57 31  1  0  0  0  0
 87 61  1  0  0  0  0
 98 91  2  0  0  0  0
127101  1  0  0  0  0
157131  1  0  0  0  0
 26  3  1  0  0  0  0
 56 33  1  0  0  0  0
 86 63  1  0  0  0  0
126103  1  0  0  0  0
156133  1  0  0  0  0
 12  5  2  0  0  0  0
 30 14  1  0  0  0  0
 42 35  2  0  0  0  0
 60 44  1  0  0  0  0
 72 65  2  0  0  0  0
 90 74  1  0  0  0  0
112105  2  0  0  0  0
130114  1  0  0  0  0
142135  2  0  0  0  0
160144  1  0  0  0  0
 23 17  2  0  0  0  0
 53 47  2  0  0  0  0
 83 77  2  0  0  0  0
123117  2  0  0  0  0
153147  2  0  0  0  0
  1161  1  0  0  0  0
  2162  1  0  0  0  0
  8163  1  0  0  0  0
  8164  1  0  0  0  0
  9165  1  0  0  0  0
  9166  1  0  0  0  0
  9167  1  0  0  0  0
 20168  1  0  0  0  0
 20169  1  0  0  0  0
 21170  1  0  0  0  0
 21171  1  0  0  0  0
 21172  1  0  0  0  0
 28173  1  0  0  0  0
 32174  1  0  0  0  0
 38175  1  0  0  0  0
 38176  1  0  0  0  0
 39177  1  0  0  0  0
 39178  1  0  0  0  0
 39179  1  0  0  0  0
 50180  1  0  0  0  0
 50181  1  0  0  0  0
 51182  1  0  0  0  0
 51183  1  0  0  0  0
 51184  1  0  0  0  0
 58185  1  0  0  0  0
 62186  1  0  0  0  0
 68187  1  0  0  0  0
 68188  1  0  0  0  0
 69189  1  0  0  0  0
 69190  1  0  0  0  0
 69191  1  0  0  0  0
 80192  1  0  0  0  0
 80193  1  0  0  0  0
 81194  1  0  0  0  0
 81195  1  0  0  0  0
 81196  1  0  0  0  0
 88197  1  0  0  0  0
 96198  1  0  0  0  0
 98199  1  0  0  0  0
 99200  1  0  0  0  0
100201  1  0  0  0  0
102202  1  0  0  0  0
108203  1  0  0  0  0
108204  1  0  0  0  0
109205  1  0  0  0  0
109206  1  0  0  0  0
109207  1  0  0  0  0
120208  1  0  0  0  0
120209  1  0  0  0  0
121210  1  0  0  0  0
121211  1  0  0  0  0
121212  1  0  0  0  0
128213  1  0  0  0  0
132214  1  0  0  0  0
138215  1  0  0  0  0
138216  1  0  0  0  0
139217  1  0  0  0  0
139218  1  0  0  0  0
139219  1  0  0  0  0
150220  1  0  0  0  0
150221  1  0  0  0  0
151222  1  0  0  0  0
151223  1  0  0  0  0
151224  1  0  0  0  0
158225  1  0  0  0  0
159226  1  0  0  0  0
M  END
