226

C          8.61650        0.88690       -4.61630
C          7.75790       -0.03340       -5.09900
C          7.12920       -0.80050       -4.07280
C          6.17970       -1.82430       -4.21210
C          5.64060       -2.19730       -5.52600
C          5.11620       -1.23340       -6.38200
C          4.60210       -1.57570       -7.61830
C          4.59470       -2.89920       -8.04340
S          4.00810       -3.48060       -9.59890
C          3.13430       -2.04870      -10.32000
C          1.80930       -1.77520       -9.63350
C          5.12470       -3.85520       -7.17360
F          5.14430       -5.14570       -7.55950
C          5.63510       -3.52810       -5.93840
C          5.76340       -2.45020       -3.04620
C          6.22660       -2.07140       -1.76230
C          7.14360       -1.01900       -1.61760
C          7.58230       -0.56910       -0.29040
C          6.65600       -0.24090        0.69990
C          7.07530        0.18780        1.93980
C          8.43100        0.29480        2.25290
S          8.83260        0.80650        3.89210
C         10.46010        1.64160        3.73400
C         10.65120        2.56090        4.92420
C          9.34330       -0.05180        1.26030
C          8.93590       -0.45960        0.00620
F         10.67480       -0.01410        1.49210
C          7.59010       -0.42340       -2.78810
S          8.73320        0.89110       -2.89000
C          5.64600       -2.85790       -0.73700
C          4.74200       -3.77400       -1.19200
S          4.57970       -3.73050       -2.93620
C          3.90970       -4.59970       -0.37460
C          3.96270       -4.68090        0.98650
C          2.86430       -5.36640        1.55750
C          2.51800       -5.40320        2.91930
C          3.42800       -4.82820        3.92060
C          3.02820       -3.77410        4.73710
C          3.91320       -3.16890        5.60850
C          5.23490       -3.59520        5.69030
S          6.46750       -2.88730        6.72680
C          5.80470       -1.23540        7.13090
C          5.72880       -0.33080        5.91680
C          5.61140       -4.67760        4.89170
F          6.87730       -5.13700        4.96050
C          4.74090       -5.28510        4.01530
C          1.23980       -5.83930        3.21160
C          0.31650       -6.28290        2.22850
C          0.69870       -6.32350        0.87710
C         -0.22930       -6.72550       -0.18990
C          0.11930       -7.72820       -1.09260
C         -0.74690       -8.09880       -2.09730
C         -1.99400       -7.48970       -2.24940
S         -3.01610       -8.10680       -3.54690
C         -4.11680       -6.70360       -3.99050
C         -4.67840       -6.94980       -5.37710
C         -2.32640       -6.48970       -1.34080
C         -1.46170       -6.10000       -0.33760
F         -3.52120       -5.85260       -1.39750
C          1.96400       -5.84120        0.57430
S          2.54350       -5.48110       -1.03450
C         -0.99480       -6.40980        2.75900
C         -1.09810       -5.99050        4.05530
S          0.48220       -5.70060        4.77680
C         -2.21810       -5.29070        4.60750
C         -2.05420       -4.20270        5.41580
C         -3.02780       -3.19660        5.21010
C         -2.83500       -1.84130        5.51730
C         -1.64870       -1.45180        6.29670
C         -0.62340       -0.72270        5.69850
C          0.54560       -0.46530        6.38250
C          0.73490       -0.92240        7.68420
S          2.31230       -0.62230        8.43050
C          1.91330       -0.14820       10.15060
C          0.99000        1.05170       10.20370
C         -0.29850       -1.64590        8.27110
F         -0.17460       -2.13690        9.52290
C         -1.47540       -1.90780        7.59820
C         -3.63860       -0.94400        4.83810
C         -4.71050       -1.34490        4.00340
C         -4.95800       -2.71080        3.76870
C         -6.05770       -3.12070        2.88500
C         -5.85930       -3.94950        1.78280
C         -6.91490       -4.29640        0.96790
C         -8.21150       -3.85190        1.22420
S         -9.48040       -4.41850        0.13230
C        -10.64540       -3.01210       -0.00250
C         -9.96680       -1.75530       -0.50860
C         -8.39860       -3.04610        2.34360
C         -7.34530       -2.66400        3.14930
F         -9.62910       -2.60400        2.68730
C         -4.04230       -3.60240        4.30880
S         -3.77670       -5.25760        3.79110
C         -5.21470       -0.25380        3.23800
C         -4.51880        0.89770        3.42260
S         -3.32360        0.76400        4.69950
C         -4.39900        2.02500        2.53000
C         -3.22100        2.32050        1.91860
C         -3.31390        3.36690        0.96860
C         -2.31730        3.80600        0.07900
C         -0.99830        3.15730        0.05680
C         -0.49330        2.62380       -1.12520
C          0.68990        1.90850       -1.14480
C          1.41340        1.69730        0.02270
S          2.88670        0.73970        0.16720
C          3.03990       -0.13620       -1.42950
C          3.81130        0.65830       -2.46630
C          0.92140        2.28170        1.19250
F          1.60860        2.12080        2.34210
C         -0.25510        2.99570        1.22550
C         -2.68670        4.80420       -0.80420
C         -3.98100        5.38250       -0.83250
C         -4.98730        4.90390        0.02390
C         -6.35790        5.42240       -0.04490
C         -7.03490        5.49620       -1.26200
C         -8.32050        5.98790       -1.32100
C         -8.98720        6.42160       -0.17550
S        -10.64780        6.99070       -0.38320
C        -10.80030        8.39330        0.78330
C         -9.78530        9.48160        0.49760
C         -8.31060        6.31110        1.03580
C         -7.01820        5.83180        1.10840
F         -8.89970        6.67500        2.19520
C         -4.62400        3.89810        0.90800
S         -5.70340        3.05580        1.99820
C         -4.07360        6.43170       -1.77890
C         -2.92140        6.64630       -2.48040
S         -1.63870        5.54760       -1.98670
C         -2.69410        7.59480       -3.50490
S         -3.94420        8.72850       -3.98270
C         -2.96550        9.47420       -5.22740
C         -1.71910        8.85770       -5.26350
C         -1.58310        7.81570       -4.29510
N         -0.34160        7.27920       -4.41920
C          0.31540        7.94830       -5.43690
C          1.62080        7.60990       -5.81450
N          2.68790        7.32450       -6.12720
C         -0.49770        8.92110       -5.97560
C         -3.47410       10.52950       -6.00910
S         -2.53680       11.29420       -7.27840
C         -3.79040       12.39020       -7.69670
C         -4.89810       12.19930       -6.90730
C         -4.71280       11.14470       -5.95500
N         -5.84980       11.02700       -5.22160
C         -6.75260       11.97320       -5.67520
C         -8.02640       12.09540       -5.10200
N         -9.06410       12.20230       -4.62390
C         -6.20940       12.70750       -6.70310
H          9.21610        1.58290       -5.16980
H          7.57760       -0.18960       -6.14700
H          5.09500       -0.19920       -6.07090
H          4.21220       -0.79500       -8.25090
H          3.80090       -1.18750      -10.30280
H          2.97770       -2.34350      -11.35760
H          1.31330       -0.93080      -10.10850
H          1.95340       -1.54700       -8.57950
H          1.16270       -2.64620       -9.70860
H          6.04310       -4.30820       -5.31570
H          5.59850       -0.28900        0.48930
H          6.35180        0.45410        2.69440
H         11.23690        0.87960        3.69720
H         10.44560        2.20260        2.80070
H         11.61010        3.06830        4.84440
H          9.86110        3.30770        4.96210
H         10.63350        1.99260        5.85150
H          9.68920       -0.72330       -0.71950
H          5.89220       -2.73480        0.30100
H          4.72580       -4.21180        1.57900
H          2.01870       -3.39740        4.67270
H          3.56290       -2.35720        6.22580
H          4.84000       -1.35280        7.62190
H          6.52070       -0.84980        7.85630
H          5.35280        0.64600        6.21350
H          6.71450       -0.20590        5.47430
H          5.06040       -0.74350        5.16410
H          5.08640       -6.11150        3.41340
H          1.07370       -8.22290       -0.99780
H         -0.47460       -8.87780       -2.79210
H         -3.51370       -5.79740       -3.96500
H         -4.91290       -6.64120       -3.25030
H         -5.33570       -6.12940       -5.65710
H         -3.87600       -7.02230       -6.10780
H         -5.24840       -7.87580       -5.39830
H         -1.75920       -5.29270        0.31390
H         -1.85370       -6.67390        2.16920
H         -1.16350       -4.03990        5.99540
H         -0.73170       -0.37770        4.68230
H          1.34240        0.08710        5.90900
H          2.88850        0.08410       10.57890
H          1.49560       -1.01040       10.66600
H          0.84320        1.35390       11.23860
H          0.01810        0.81400        9.77440
H          1.41610        1.88740        9.65190
H         -2.24300       -2.48360        8.09220
H         -4.86860       -4.29800        1.53980
H         -6.75010       -4.92420        0.10650
H        -11.12960       -2.85640        0.95890
H        -11.38470       -3.37370       -0.71740
H         -9.46400       -1.94690       -1.45450
H         -9.23050       -1.39510        0.20720
H        -10.70880       -0.97360       -0.65770
H         -7.54590       -2.03380        4.00250
H         -5.97880       -0.36120        2.48880
H         -2.32140        1.76260        2.10410
H         -1.04920        2.74140       -2.04330
H          1.03460        1.50190       -2.08170
H          3.57540       -1.05130       -1.17450
H          2.03950       -0.40420       -1.76540
H          3.31920        1.60280       -2.68790
H          3.89180        0.07950       -3.38500
H          4.81500        0.87230       -2.10590
H         -0.58320        3.42600        2.15890
H         -6.55190        5.14970       -2.16300
H         -8.84140        6.04480       -2.26420
H        -10.72460        8.01900        1.80160
H        -11.81600        8.74880        0.60990
H         -9.86780        9.82090       -0.53290
H         -8.77180        9.12100        0.66460
H         -9.96130       10.32740        1.15900
H         -6.53640        5.78810        2.07280
H         -4.95950        7.02190       -1.93100
H          0.04620        6.53400       -3.86610
H         -0.24370        9.58550       -6.77630
H         -3.63320       13.09560       -8.48640
H         -6.01940       10.37410       -4.47570
H         -6.68910       13.50270       -7.23650
