
  xtb     03052202283D
 energy: -400.508700327598 gnorm: 0.000981527196 xtb: 6.4.1 (unknown)
226249  0     0  0            999 V2000
    8.6165    0.8869   -4.6163 C   0  0  0  0  0  0  0  0  0  0  0  0
    7.7579   -0.0334   -5.0990 C   0  0  0  0  0  0  0  0  0  0  0  0
    7.1292   -0.8005   -4.0728 C   0  0  0  0  0  0  0  0  0  0  0  0
    6.1797   -1.8243   -4.2121 C   0  0  0  0  0  0  0  0  0  0  0  0
    5.6406   -2.1973   -5.5260 C   0  0  0  0  0  0  0  0  0  0  0  0
    5.1162   -1.2334   -6.3820 C   0  0  0  0  0  0  0  0  0  0  0  0
    4.6021   -1.5757   -7.6183 C   0  0  0  0  0  0  0  0  0  0  0  0
    4.5947   -2.8992   -8.0434 C   0  0  0  0  0  0  0  0  0  0  0  0
    4.0081   -3.4806   -9.5989 S   0  0  0  0  0  0  0  0  0  0  0  0
    3.1343   -2.0487  -10.3200 C   0  0  0  0  0  0  0  0  0  0  0  0
    1.8093   -1.7752   -9.6335 C   0  0  0  0  0  0  0  0  0  0  0  0
    5.1247   -3.8552   -7.1736 C   0  0  0  0  0  0  0  0  0  0  0  0
    5.1443   -5.1457   -7.5595 F   0  0  0  0  0  0  0  0  0  0  0  0
    5.6351   -3.5281   -5.9384 C   0  0  0  0  0  0  0  0  0  0  0  0
    5.7634   -2.4502   -3.0462 C   0  0  0  0  0  0  0  0  0  0  0  0
    6.2266   -2.0714   -1.7623 C   0  0  0  0  0  0  0  0  0  0  0  0
    7.1436   -1.0190   -1.6176 C   0  0  0  0  0  0  0  0  0  0  0  0
    7.5823   -0.5691   -0.2904 C   0  0  0  0  0  0  0  0  0  0  0  0
    6.6560   -0.2409    0.6999 C   0  0  0  0  0  0  0  0  0  0  0  0
    7.0753    0.1878    1.9398 C   0  0  0  0  0  0  0  0  0  0  0  0
    8.4310    0.2948    2.2529 C   0  0  0  0  0  0  0  0  0  0  0  0
    8.8326    0.8065    3.8921 S   0  0  0  0  0  0  0  0  0  0  0  0
   10.4601    1.6416    3.7340 C   0  0  0  0  0  0  0  0  0  0  0  0
   10.6512    2.5609    4.9242 C   0  0  0  0  0  0  0  0  0  0  0  0
    9.3433   -0.0518    1.2603 C   0  0  0  0  0  0  0  0  0  0  0  0
    8.9359   -0.4596    0.0062 C   0  0  0  0  0  0  0  0  0  0  0  0
   10.6748   -0.0141    1.4921 F   0  0  0  0  0  0  0  0  0  0  0  0
    7.5901   -0.4234   -2.7881 C   0  0  0  0  0  0  0  0  0  0  0  0
    8.7332    0.8911   -2.8900 S   0  0  0  0  0  0  0  0  0  0  0  0
    5.6460   -2.8579   -0.7370 C   0  0  0  0  0  0  0  0  0  0  0  0
    4.7420   -3.7740   -1.1920 C   0  0  0  0  0  0  0  0  0  0  0  0
    4.5797   -3.7305   -2.9362 S   0  0  0  0  0  0  0  0  0  0  0  0
    3.9097   -4.5997   -0.3746 C   0  0  0  0  0  0  0  0  0  0  0  0
    3.9627   -4.6809    0.9865 C   0  0  0  0  0  0  0  0  0  0  0  0
    2.8643   -5.3664    1.5575 C   0  0  0  0  0  0  0  0  0  0  0  0
    2.5180   -5.4032    2.9193 C   0  0  0  0  0  0  0  0  0  0  0  0
    3.4280   -4.8282    3.9206 C   0  0  0  0  0  0  0  0  0  0  0  0
    3.0282   -3.7741    4.7371 C   0  0  0  0  0  0  0  0  0  0  0  0
    3.9132   -3.1689    5.6085 C   0  0  0  0  0  0  0  0  0  0  0  0
    5.2349   -3.5952    5.6903 C   0  0  0  0  0  0  0  0  0  0  0  0
    6.4675   -2.8873    6.7268 S   0  0  0  0  0  0  0  0  0  0  0  0
    5.8047   -1.2354    7.1309 C   0  0  0  0  0  0  0  0  0  0  0  0
    5.7288   -0.3308    5.9168 C   0  0  0  0  0  0  0  0  0  0  0  0
    5.6114   -4.6776    4.8917 C   0  0  0  0  0  0  0  0  0  0  0  0
    6.8773   -5.1370    4.9605 F   0  0  0  0  0  0  0  0  0  0  0  0
    4.7409   -5.2851    4.0153 C   0  0  0  0  0  0  0  0  0  0  0  0
    1.2398   -5.8393    3.2116 C   0  0  0  0  0  0  0  0  0  0  0  0
    0.3165   -6.2829    2.2285 C   0  0  0  0  0  0  0  0  0  0  0  0
    0.6987   -6.3235    0.8771 C   0  0  0  0  0  0  0  0  0  0  0  0
   -0.2293   -6.7255   -0.1899 C   0  0  0  0  0  0  0  0  0  0  0  0
    0.1193   -7.7282   -1.0926 C   0  0  0  0  0  0  0  0  0  0  0  0
   -0.7469   -8.0988   -2.0973 C   0  0  0  0  0  0  0  0  0  0  0  0
   -1.9940   -7.4897   -2.2494 C   0  0  0  0  0  0  0  0  0  0  0  0
   -3.0161   -8.1068   -3.5469 S   0  0  0  0  0  0  0  0  0  0  0  0
   -4.1168   -6.7036   -3.9905 C   0  0  0  0  0  0  0  0  0  0  0  0
   -4.6784   -6.9498   -5.3771 C   0  0  0  0  0  0  0  0  0  0  0  0
   -2.3264   -6.4897   -1.3408 C   0  0  0  0  0  0  0  0  0  0  0  0
   -1.4617   -6.1000   -0.3376 C   0  0  0  0  0  0  0  0  0  0  0  0
   -3.5212   -5.8526   -1.3975 F   0  0  0  0  0  0  0  0  0  0  0  0
    1.9640   -5.8412    0.5743 C   0  0  0  0  0  0  0  0  0  0  0  0
    2.5435   -5.4811   -1.0345 S   0  0  0  0  0  0  0  0  0  0  0  0
   -0.9948   -6.4098    2.7590 C   0  0  0  0  0  0  0  0  0  0  0  0
   -1.0981   -5.9905    4.0553 C   0  0  0  0  0  0  0  0  0  0  0  0
    0.4822   -5.7006    4.7768 S   0  0  0  0  0  0  0  0  0  0  0  0
   -2.2181   -5.2907    4.6075 C   0  0  0  0  0  0  0  0  0  0  0  0
   -2.0542   -4.2027    5.4158 C   0  0  0  0  0  0  0  0  0  0  0  0
   -3.0278   -3.1966    5.2101 C   0  0  0  0  0  0  0  0  0  0  0  0
   -2.8350   -1.8413    5.5173 C   0  0  0  0  0  0  0  0  0  0  0  0
   -1.6487   -1.4518    6.2967 C   0  0  0  0  0  0  0  0  0  0  0  0
   -0.6234   -0.7227    5.6985 C   0  0  0  0  0  0  0  0  0  0  0  0
    0.5456   -0.4653    6.3825 C   0  0  0  0  0  0  0  0  0  0  0  0
    0.7349   -0.9224    7.6842 C   0  0  0  0  0  0  0  0  0  0  0  0
    2.3123   -0.6223    8.4305 S   0  0  0  0  0  0  0  0  0  0  0  0
    1.9133   -0.1482   10.1506 C   0  0  0  0  0  0  0  0  0  0  0  0
    0.9900    1.0517   10.2037 C   0  0  0  0  0  0  0  0  0  0  0  0
   -0.2985   -1.6459    8.2711 C   0  0  0  0  0  0  0  0  0  0  0  0
   -0.1746   -2.1369    9.5229 F   0  0  0  0  0  0  0  0  0  0  0  0
   -1.4754   -1.9078    7.5982 C   0  0  0  0  0  0  0  0  0  0  0  0
   -3.6386   -0.9440    4.8381 C   0  0  0  0  0  0  0  0  0  0  0  0
   -4.7105   -1.3449    4.0034 C   0  0  0  0  0  0  0  0  0  0  0  0
   -4.9580   -2.7108    3.7687 C   0  0  0  0  0  0  0  0  0  0  0  0
   -6.0577   -3.1207    2.8850 C   0  0  0  0  0  0  0  0  0  0  0  0
   -5.8593   -3.9495    1.7828 C   0  0  0  0  0  0  0  0  0  0  0  0
   -6.9149   -4.2964    0.9679 C   0  0  0  0  0  0  0  0  0  0  0  0
   -8.2115   -3.8519    1.2242 C   0  0  0  0  0  0  0  0  0  0  0  0
   -9.4804   -4.4185    0.1323 S   0  0  0  0  0  0  0  0  0  0  0  0
  -10.6454   -3.0121   -0.0025 C   0  0  0  0  0  0  0  0  0  0  0  0
   -9.9668   -1.7553   -0.5086 C   0  0  0  0  0  0  0  0  0  0  0  0
   -8.3986   -3.0461    2.3436 C   0  0  0  0  0  0  0  0  0  0  0  0
   -7.3453   -2.6640    3.1493 C   0  0  0  0  0  0  0  0  0  0  0  0
   -9.6291   -2.6040    2.6873 F   0  0  0  0  0  0  0  0  0  0  0  0
   -4.0423   -3.6024    4.3088 C   0  0  0  0  0  0  0  0  0  0  0  0
   -3.7767   -5.2576    3.7911 S   0  0  0  0  0  0  0  0  0  0  0  0
   -5.2147   -0.2538    3.2380 C   0  0  0  0  0  0  0  0  0  0  0  0
   -4.5188    0.8977    3.4226 C   0  0  0  0  0  0  0  0  0  0  0  0
   -3.3236    0.7640    4.6995 S   0  0  0  0  0  0  0  0  0  0  0  0
   -4.3990    2.0250    2.5300 C   0  0  0  0  0  0  0  0  0  0  0  0
   -3.2210    2.3205    1.9186 C   0  0  0  0  0  0  0  0  0  0  0  0
   -3.3139    3.3669    0.9686 C   0  0  0  0  0  0  0  0  0  0  0  0
   -2.3173    3.8060    0.0790 C   0  0  0  0  0  0  0  0  0  0  0  0
   -0.9983    3.1573    0.0568 C   0  0  0  0  0  0  0  0  0  0  0  0
   -0.4933    2.6238   -1.1252 C   0  0  0  0  0  0  0  0  0  0  0  0
    0.6899    1.9085   -1.1448 C   0  0  0  0  0  0  0  0  0  0  0  0
    1.4134    1.6973    0.0227 C   0  0  0  0  0  0  0  0  0  0  0  0
    2.8867    0.7397    0.1672 S   0  0  0  0  0  0  0  0  0  0  0  0
    3.0399   -0.1362   -1.4295 C   0  0  0  0  0  0  0  0  0  0  0  0
    3.8113    0.6583   -2.4663 C   0  0  0  0  0  0  0  0  0  0  0  0
    0.9214    2.2817    1.1925 C   0  0  0  0  0  0  0  0  0  0  0  0
    1.6086    2.1208    2.3421 F   0  0  0  0  0  0  0  0  0  0  0  0
   -0.2551    2.9957    1.2255 C   0  0  0  0  0  0  0  0  0  0  0  0
   -2.6867    4.8042   -0.8042 C   0  0  0  0  0  0  0  0  0  0  0  0
   -3.9810    5.3825   -0.8325 C   0  0  0  0  0  0  0  0  0  0  0  0
   -4.9873    4.9039    0.0239 C   0  0  0  0  0  0  0  0  0  0  0  0
   -6.3579    5.4224   -0.0449 C   0  0  0  0  0  0  0  0  0  0  0  0
   -7.0349    5.4962   -1.2620 C   0  0  0  0  0  0  0  0  0  0  0  0
   -8.3205    5.9879   -1.3210 C   0  0  0  0  0  0  0  0  0  0  0  0
   -8.9872    6.4216   -0.1755 C   0  0  0  0  0  0  0  0  0  0  0  0
  -10.6478    6.9907   -0.3832 S   0  0  0  0  0  0  0  0  0  0  0  0
  -10.8003    8.3933    0.7833 C   0  0  0  0  0  0  0  0  0  0  0  0
   -9.7853    9.4816    0.4976 C   0  0  0  0  0  0  0  0  0  0  0  0
   -8.3106    6.3111    1.0358 C   0  0  0  0  0  0  0  0  0  0  0  0
   -7.0182    5.8318    1.1084 C   0  0  0  0  0  0  0  0  0  0  0  0
   -8.8997    6.6750    2.1952 F   0  0  0  0  0  0  0  0  0  0  0  0
   -4.6240    3.8981    0.9080 C   0  0  0  0  0  0  0  0  0  0  0  0
   -5.7034    3.0558    1.9982 S   0  0  0  0  0  0  0  0  0  0  0  0
   -4.0736    6.4317   -1.7789 C   0  0  0  0  0  0  0  0  0  0  0  0
   -2.9214    6.6463   -2.4804 C   0  0  0  0  0  0  0  0  0  0  0  0
   -1.6387    5.5476   -1.9867 S   0  0  0  0  0  0  0  0  0  0  0  0
   -2.6941    7.5948   -3.5049 C   0  0  0  0  0  0  0  0  0  0  0  0
   -3.9442    8.7285   -3.9827 S   0  0  0  0  0  0  0  0  0  0  0  0
   -2.9655    9.4742   -5.2274 C   0  0  0  0  0  0  0  0  0  0  0  0
   -1.7191    8.8577   -5.2635 C   0  0  0  0  0  0  0  0  0  0  0  0
   -1.5831    7.8157   -4.2951 C   0  0  0  0  0  0  0  0  0  0  0  0
   -0.3416    7.2792   -4.4192 N   0  0  0  0  0  0  0  0  0  0  0  0
    0.3154    7.9483   -5.4369 C   0  0  0  0  0  0  0  0  0  0  0  0
    1.6208    7.6099   -5.8145 C   0  0  0  0  0  0  0  0  0  0  0  0
    2.6879    7.3245   -6.1272 N   0  0  0  0  0  0  0  0  0  0  0  0
   -0.4977    8.9211   -5.9756 C   0  0  0  0  0  0  0  0  0  0  0  0
   -3.4741   10.5295   -6.0091 C   0  0  0  0  0  0  0  0  0  0  0  0
   -2.5368   11.2942   -7.2784 S   0  0  0  0  0  0  0  0  0  0  0  0
   -3.7904   12.3902   -7.6967 C   0  0  0  0  0  0  0  0  0  0  0  0
   -4.8981   12.1993   -6.9073 C   0  0  0  0  0  0  0  0  0  0  0  0
   -4.7128   11.1447   -5.9550 C   0  0  0  0  0  0  0  0  0  0  0  0
   -5.8498   11.0270   -5.2216 N   0  0  0  0  0  0  0  0  0  0  0  0
   -6.7526   11.9732   -5.6752 C   0  0  0  0  0  0  0  0  0  0  0  0
   -8.0264   12.0954   -5.1020 C   0  0  0  0  0  0  0  0  0  0  0  0
   -9.0641   12.2023   -4.6239 N   0  0  0  0  0  0  0  0  0  0  0  0
   -6.2094   12.7075   -6.7031 C   0  0  0  0  0  0  0  0  0  0  0  0
    9.2161    1.5829   -5.1698 H   0  0  0  0  0  0  0  0  0  0  0  0
    7.5776   -0.1896   -6.1470 H   0  0  0  0  0  0  0  0  0  0  0  0
    5.0950   -0.1992   -6.0709 H   0  0  0  0  0  0  0  0  0  0  0  0
    4.2122   -0.7950   -8.2509 H   0  0  0  0  0  0  0  0  0  0  0  0
    3.8009   -1.1875  -10.3028 H   0  0  0  0  0  0  0  0  0  0  0  0
    2.9777   -2.3435  -11.3576 H   0  0  0  0  0  0  0  0  0  0  0  0
    1.3133   -0.9308  -10.1085 H   0  0  0  0  0  0  0  0  0  0  0  0
    1.9534   -1.5470   -8.5795 H   0  0  0  0  0  0  0  0  0  0  0  0
    1.1627   -2.6462   -9.7086 H   0  0  0  0  0  0  0  0  0  0  0  0
    6.0431   -4.3082   -5.3157 H   0  0  0  0  0  0  0  0  0  0  0  0
    5.5985   -0.2890    0.4893 H   0  0  0  0  0  0  0  0  0  0  0  0
    6.3518    0.4541    2.6944 H   0  0  0  0  0  0  0  0  0  0  0  0
   11.2369    0.8796    3.6972 H   0  0  0  0  0  0  0  0  0  0  0  0
   10.4456    2.2026    2.8007 H   0  0  0  0  0  0  0  0  0  0  0  0
   11.6101    3.0683    4.8444 H   0  0  0  0  0  0  0  0  0  0  0  0
    9.8611    3.3077    4.9621 H   0  0  0  0  0  0  0  0  0  0  0  0
   10.6335    1.9926    5.8515 H   0  0  0  0  0  0  0  0  0  0  0  0
    9.6892   -0.7233   -0.7195 H   0  0  0  0  0  0  0  0  0  0  0  0
    5.8922   -2.7348    0.3010 H   0  0  0  0  0  0  0  0  0  0  0  0
    4.7258   -4.2118    1.5790 H   0  0  0  0  0  0  0  0  0  0  0  0
    2.0187   -3.3974    4.6727 H   0  0  0  0  0  0  0  0  0  0  0  0
    3.5629   -2.3572    6.2258 H   0  0  0  0  0  0  0  0  0  0  0  0
    4.8400   -1.3528    7.6219 H   0  0  0  0  0  0  0  0  0  0  0  0
    6.5207   -0.8498    7.8563 H   0  0  0  0  0  0  0  0  0  0  0  0
    5.3528    0.6460    6.2135 H   0  0  0  0  0  0  0  0  0  0  0  0
    6.7145   -0.2059    5.4743 H   0  0  0  0  0  0  0  0  0  0  0  0
    5.0604   -0.7435    5.1641 H   0  0  0  0  0  0  0  0  0  0  0  0
    5.0864   -6.1115    3.4134 H   0  0  0  0  0  0  0  0  0  0  0  0
    1.0737   -8.2229   -0.9978 H   0  0  0  0  0  0  0  0  0  0  0  0
   -0.4746   -8.8778   -2.7921 H   0  0  0  0  0  0  0  0  0  0  0  0
   -3.5137   -5.7974   -3.9650 H   0  0  0  0  0  0  0  0  0  0  0  0
   -4.9129   -6.6412   -3.2503 H   0  0  0  0  0  0  0  0  0  0  0  0
   -5.3357   -6.1294   -5.6571 H   0  0  0  0  0  0  0  0  0  0  0  0
   -3.8760   -7.0223   -6.1078 H   0  0  0  0  0  0  0  0  0  0  0  0
   -5.2484   -7.8758   -5.3983 H   0  0  0  0  0  0  0  0  0  0  0  0
   -1.7592   -5.2927    0.3139 H   0  0  0  0  0  0  0  0  0  0  0  0
   -1.8537   -6.6739    2.1692 H   0  0  0  0  0  0  0  0  0  0  0  0
   -1.1635   -4.0399    5.9954 H   0  0  0  0  0  0  0  0  0  0  0  0
   -0.7317   -0.3777    4.6823 H   0  0  0  0  0  0  0  0  0  0  0  0
    1.3424    0.0871    5.9090 H   0  0  0  0  0  0  0  0  0  0  0  0
    2.8885    0.0841   10.5789 H   0  0  0  0  0  0  0  0  0  0  0  0
    1.4956   -1.0104   10.6660 H   0  0  0  0  0  0  0  0  0  0  0  0
    0.8432    1.3539   11.2386 H   0  0  0  0  0  0  0  0  0  0  0  0
    0.0181    0.8140    9.7744 H   0  0  0  0  0  0  0  0  0  0  0  0
    1.4161    1.8874    9.6519 H   0  0  0  0  0  0  0  0  0  0  0  0
   -2.2430   -2.4836    8.0922 H   0  0  0  0  0  0  0  0  0  0  0  0
   -4.8686   -4.2980    1.5398 H   0  0  0  0  0  0  0  0  0  0  0  0
   -6.7501   -4.9242    0.1065 H   0  0  0  0  0  0  0  0  0  0  0  0
  -11.1296   -2.8564    0.9589 H   0  0  0  0  0  0  0  0  0  0  0  0
  -11.3847   -3.3737   -0.7174 H   0  0  0  0  0  0  0  0  0  0  0  0
   -9.4640   -1.9469   -1.4545 H   0  0  0  0  0  0  0  0  0  0  0  0
   -9.2305   -1.3951    0.2072 H   0  0  0  0  0  0  0  0  0  0  0  0
  -10.7088   -0.9736   -0.6577 H   0  0  0  0  0  0  0  0  0  0  0  0
   -7.5459   -2.0338    4.0025 H   0  0  0  0  0  0  0  0  0  0  0  0
   -5.9788   -0.3612    2.4888 H   0  0  0  0  0  0  0  0  0  0  0  0
   -2.3214    1.7626    2.1041 H   0  0  0  0  0  0  0  0  0  0  0  0
   -1.0492    2.7414   -2.0433 H   0  0  0  0  0  0  0  0  0  0  0  0
    1.0346    1.5019   -2.0817 H   0  0  0  0  0  0  0  0  0  0  0  0
    3.5754   -1.0513   -1.1745 H   0  0  0  0  0  0  0  0  0  0  0  0
    2.0395   -0.4042   -1.7654 H   0  0  0  0  0  0  0  0  0  0  0  0
    3.3192    1.6028   -2.6879 H   0  0  0  0  0  0  0  0  0  0  0  0
    3.8918    0.0795   -3.3850 H   0  0  0  0  0  0  0  0  0  0  0  0
    4.8150    0.8723   -2.1059 H   0  0  0  0  0  0  0  0  0  0  0  0
   -0.5832    3.4260    2.1589 H   0  0  0  0  0  0  0  0  0  0  0  0
   -6.5519    5.1497   -2.1630 H   0  0  0  0  0  0  0  0  0  0  0  0
   -8.8414    6.0448   -2.2642 H   0  0  0  0  0  0  0  0  0  0  0  0
  -10.7246    8.0190    1.8016 H   0  0  0  0  0  0  0  0  0  0  0  0
  -11.8160    8.7488    0.6099 H   0  0  0  0  0  0  0  0  0  0  0  0
   -9.8678    9.8209   -0.5329 H   0  0  0  0  0  0  0  0  0  0  0  0
   -8.7718    9.1210    0.6646 H   0  0  0  0  0  0  0  0  0  0  0  0
   -9.9613   10.3274    1.1590 H   0  0  0  0  0  0  0  0  0  0  0  0
   -6.5364    5.7881    2.0728 H   0  0  0  0  0  0  0  0  0  0  0  0
   -4.9595    7.0219   -1.9310 H   0  0  0  0  0  0  0  0  0  0  0  0
    0.0462    6.5340   -3.8661 H   0  0  0  0  0  0  0  0  0  0  0  0
   -0.2437    9.5855   -6.7763 H   0  0  0  0  0  0  0  0  0  0  0  0
   -3.6332   13.0956   -8.4864 H   0  0  0  0  0  0  0  0  0  0  0  0
   -6.0194   10.3741   -4.4757 H   0  0  0  0  0  0  0  0  0  0  0  0
   -6.6891   13.5027   -7.2365 H   0  0  0  0  0  0  0  0  0  0  0  0
  1  2  2  0  0  0  0
  2  3  1  0  0  0  0
  3  4  2  0  0  0  0
  4  5  1  0  0  0  0
  5  6  2  0  0  0  0
  6  7  1  0  0  0  0
  7  8  2  0  0  0  0
  8  9  1  0  0  0  0
  9 10  1  0  0  0  0
 10 11  1  0  0  0  0
  8 12  1  0  0  0  0
 12 13  1  0  0  0  0
 12 14  2  0  0  0  0
  4 15  1  0  0  0  0
 15 16  2  0  0  0  0
 16 17  1  0  0  0  0
 17 18  1  0  0  0  0
 18 19  2  0  0  0  0
 19 20  1  0  0  0  0
 20 21  2  0  0  0  0
 21 22  1  0  0  0  0
 22 23  1  0  0  0  0
 23 24  1  0  0  0  0
 21 25  1  0  0  0  0
 25 26  2  0  0  0  0
 25 27  1  0  0  0  0
 17 28  2  0  0  0  0
 28 29  1  0  0  0  0
 16 30  1  0  0  0  0
 30 31  2  0  0  0  0
 31 32  1  0  0  0  0
 31 33  1  0  0  0  0
 33 34  2  0  0  0  0
 34 35  1  0  0  0  0
 35 36  2  0  0  0  0
 36 37  1  0  0  0  0
 37 38  2  0  0  0  0
 38 39  1  0  0  0  0
 39 40  2  0  0  0  0
 40 41  1  0  0  0  0
 41 42  1  0  0  0  0
 42 43  1  0  0  0  0
 40 44  1  0  0  0  0
 44 45  1  0  0  0  0
 44 46  2  0  0  0  0
 36 47  1  0  0  0  0
 47 48  2  0  0  0  0
 48 49  1  0  0  0  0
 49 50  1  0  0  0  0
 50 51  2  0  0  0  0
 51 52  1  0  0  0  0
 52 53  2  0  0  0  0
 53 54  1  0  0  0  0
 54 55  1  0  0  0  0
 55 56  1  0  0  0  0
 53 57  1  0  0  0  0
 57 58  2  0  0  0  0
 57 59  1  0  0  0  0
 49 60  2  0  0  0  0
 60 61  1  0  0  0  0
 48 62  1  0  0  0  0
 62 63  2  0  0  0  0
 63 64  1  0  0  0  0
 63 65  1  0  0  0  0
 65 66  2  0  0  0  0
 66 67  1  0  0  0  0
 67 68  2  0  0  0  0
 68 69  1  0  0  0  0
 69 70  2  0  0  0  0
 70 71  1  0  0  0  0
 71 72  2  0  0  0  0
 72 73  1  0  0  0  0
 73 74  1  0  0  0  0
 74 75  1  0  0  0  0
 72 76  1  0  0  0  0
 76 77  1  0  0  0  0
 76 78  2  0  0  0  0
 68 79  1  0  0  0  0
 79 80  2  0  0  0  0
 80 81  1  0  0  0  0
 81 82  1  0  0  0  0
 82 83  2  0  0  0  0
 83 84  1  0  0  0  0
 84 85  2  0  0  0  0
 85 86  1  0  0  0  0
 86 87  1  0  0  0  0
 87 88  1  0  0  0  0
 85 89  1  0  0  0  0
 89 90  2  0  0  0  0
 89 91  1  0  0  0  0
 81 92  2  0  0  0  0
 92 93  1  0  0  0  0
 80 94  1  0  0  0  0
 94 95  2  0  0  0  0
 95 96  1  0  0  0  0
 95 97  1  0  0  0  0
 97 98  2  0  0  0  0
 98 99  1  0  0  0  0
 99100  2  0  0  0  0
100101  1  0  0  0  0
101102  2  0  0  0  0
102103  1  0  0  0  0
103104  2  0  0  0  0
104105  1  0  0  0  0
105106  1  0  0  0  0
106107  1  0  0  0  0
104108  1  0  0  0  0
108109  1  0  0  0  0
108110  2  0  0  0  0
100111  1  0  0  0  0
111112  2  0  0  0  0
112113  1  0  0  0  0
113114  1  0  0  0  0
114115  2  0  0  0  0
115116  1  0  0  0  0
116117  2  0  0  0  0
117118  1  0  0  0  0
118119  1  0  0  0  0
119120  1  0  0  0  0
117121  1  0  0  0  0
121122  2  0  0  0  0
121123  1  0  0  0  0
113124  2  0  0  0  0
124125  1  0  0  0  0
112126  1  0  0  0  0
126127  2  0  0  0  0
127128  1  0  0  0  0
127129  1  0  0  0  0
129130  1  0  0  0  0
130131  1  0  0  0  0
131132  2  0  0  0  0
132133  1  0  0  0  0
133134  1  0  0  0  0
134135  1  0  0  0  0
135136  1  0  0  0  0
136137  3  0  0  0  0
135138  2  0  0  0  0
131139  1  0  0  0  0
139140  1  0  0  0  0
140141  1  0  0  0  0
141142  2  0  0  0  0
142143  1  0  0  0  0
143144  1  0  0  0  0
144145  1  0  0  0  0
145146  1  0  0  0  0
146147  3  0  0  0  0
145148  2  0  0  0  0
 29  1  1  0  0  0  0
 61 33  1  0  0  0  0
 93 65  1  0  0  0  0
125 97  1  0  0  0  0
133129  2  0  0  0  0
143139  2  0  0  0  0
 28  3  1  0  0  0  0
 60 35  1  0  0  0  0
 92 67  1  0  0  0  0
124 99  1  0  0  0  0
138132  1  0  0  0  0
148142  1  0  0  0  0
 14  5  1  0  0  0  0
 32 15  1  0  0  0  0
 46 37  1  0  0  0  0
 64 47  1  0  0  0  0
 78 69  1  0  0  0  0
 96 79  1  0  0  0  0
110101  1  0  0  0  0
128111  1  0  0  0  0
 26 18  1  0  0  0  0
 58 50  1  0  0  0  0
 90 82  1  0  0  0  0
122114  1  0  0  0  0
  1149  1  0  0  0  0
  2150  1  0  0  0  0
  6151  1  0  0  0  0
  7152  1  0  0  0  0
 10153  1  0  0  0  0
 10154  1  0  0  0  0
 11155  1  0  0  0  0
 11156  1  0  0  0  0
 11157  1  0  0  0  0
 14158  1  0  0  0  0
 19159  1  0  0  0  0
 20160  1  0  0  0  0
 23161  1  0  0  0  0
 23162  1  0  0  0  0
 24163  1  0  0  0  0
 24164  1  0  0  0  0
 24165  1  0  0  0  0
 26166  1  0  0  0  0
 30167  1  0  0  0  0
 34168  1  0  0  0  0
 38169  1  0  0  0  0
 39170  1  0  0  0  0
 42171  1  0  0  0  0
 42172  1  0  0  0  0
 43173  1  0  0  0  0
 43174  1  0  0  0  0
 43175  1  0  0  0  0
 46176  1  0  0  0  0
 51177  1  0  0  0  0
 52178  1  0  0  0  0
 55179  1  0  0  0  0
 55180  1  0  0  0  0
 56181  1  0  0  0  0
 56182  1  0  0  0  0
 56183  1  0  0  0  0
 58184  1  0  0  0  0
 62185  1  0  0  0  0
 66186  1  0  0  0  0
 70187  1  0  0  0  0
 71188  1  0  0  0  0
 74189  1  0  0  0  0
 74190  1  0  0  0  0
 75191  1  0  0  0  0
 75192  1  0  0  0  0
 75193  1  0  0  0  0
 78194  1  0  0  0  0
 83195  1  0  0  0  0
 84196  1  0  0  0  0
 87197  1  0  0  0  0
 87198  1  0  0  0  0
 88199  1  0  0  0  0
 88200  1  0  0  0  0
 88201  1  0  0  0  0
 90202  1  0  0  0  0
 94203  1  0  0  0  0
 98204  1  0  0  0  0
102205  1  0  0  0  0
103206  1  0  0  0  0
106207  1  0  0  0  0
106208  1  0  0  0  0
107209  1  0  0  0  0
107210  1  0  0  0  0
107211  1  0  0  0  0
110212  1  0  0  0  0
115213  1  0  0  0  0
116214  1  0  0  0  0
119215  1  0  0  0  0
119216  1  0  0  0  0
120217  1  0  0  0  0
120218  1  0  0  0  0
120219  1  0  0  0  0
122220  1  0  0  0  0
126221  1  0  0  0  0
134222  1  0  0  0  0
138223  1  0  0  0  0
141224  1  0  0  0  0
144225  1  0  0  0  0
148226  1  0  0  0  0
M  END
