224

C          5.71860      -18.37150        1.29190
C          5.78870      -17.04640        1.53350
C          5.41610      -16.25860        0.40590
C          5.42370      -14.86090        0.27950
C          5.74720      -13.98530        1.39460
S          4.90430      -14.12300        2.91110
C          5.74250      -12.77130        3.59340
C          5.43470      -12.28300        4.96580
C          4.22540      -11.34480        4.95590
C          6.61640      -12.25290        2.68590
Cl         7.62350      -10.89910        2.99390
C          6.62790      -12.94000        1.44200
Cl         7.71740      -12.52810        0.18460
C          5.07250      -14.34020       -0.96030
C          4.70560      -15.14690       -2.06470
C          4.68300      -16.54480       -1.93230
C          4.28360      -17.40210       -3.03650
S          5.05380      -17.29330       -4.59260
C          4.07160      -18.55510       -5.25780
C          4.20690      -18.95990       -6.68390
C          3.72720      -17.84930       -7.62010
C          3.20000      -19.01740       -4.31870
C          3.31970      -18.37080       -3.05790
Cl         2.28020      -18.72800       -1.74330
Cl         2.05370      -20.26330       -4.60070
C          5.05290      -17.06740       -0.69770
S          5.19140      -18.75790       -0.30770
C          4.34590      -14.37170       -3.19760
C          4.42520      -13.02740       -2.98430
S          4.95200      -12.65460       -1.35320
C          4.14540      -11.92560       -3.84960
C          3.44090      -11.84340       -5.04060
C          2.83000      -12.97100       -5.80380
C          3.85000      -13.61990       -6.74230
N          3.30820      -10.59830       -5.52940
C          3.87330       -9.69320       -4.79860
S          4.66870      -10.33790       -3.36810
C          3.81860       -8.28510       -4.98190
C          4.44780       -7.35980       -4.19900
C          4.07480       -6.02960       -4.49040
C          4.45060       -4.85760       -3.80810
C          5.33930       -4.89560       -2.65900
S          5.05360       -6.00430       -1.34680
C          6.39740       -5.40550       -0.43560
C          6.76450       -6.01660        0.87140
C          7.35400       -7.41580        0.67900
C          7.02070       -4.40590       -1.12020
Cl         8.39340       -3.55480       -0.54020
C          6.42400       -4.11130       -2.37660
Cl         7.08690       -2.94930       -3.44670
C          3.85600       -3.67540       -4.22740
C          2.92480       -3.61090       -5.29580
C          2.56660       -4.78180       -5.98470
C          1.56030       -4.75990       -7.03510
S          1.89040       -5.38520       -8.62160
C          0.29630       -5.01530       -9.18250
C         -0.10490       -5.26350      -10.59470
C          0.19220       -4.04260      -11.46910
C         -0.43580       -4.43920       -8.18720
C          0.27560       -4.29690       -6.96620
Cl        -0.45210       -3.67840       -5.53920
Cl        -2.06610       -3.93630       -8.36750
C          3.15650       -5.96820       -5.56850
S          2.77930       -7.55730       -6.18130
C          2.40090       -2.30390       -5.46130
C          2.85520       -1.41810       -4.53110
S          4.03010       -2.13470       -3.44600
C          2.40790       -0.09360       -4.25510
C          2.89760        0.72320       -3.27920
C          2.11260        1.87750       -3.05920
C          2.25930        2.83930       -2.04400
C          3.34560        2.76670       -1.08170
S          3.70430        1.27800       -0.25270
C          4.99460        1.99250        0.65230
C          5.81560        1.17040        1.58360
C          6.51100        0.02460        0.84680
C          5.11910        3.31050        0.33030
Cl         6.28110        4.36560        1.02510
C          4.18650        3.75410       -0.64730
Cl         4.21230        5.35050       -1.26860
C          1.25920        3.79800       -1.94690
C          0.14820        3.85680       -2.82660
C          0.04370        2.93620       -3.88480
C         -1.06340        2.96010       -4.82600
S         -2.72170        2.95960       -4.30090
C         -3.32010        2.92760       -5.92380
C         -4.77920        2.85640       -6.21020
C         -5.26300        1.40410       -6.21620
C         -2.28440        2.91440       -6.80950
C         -1.00510        2.93380       -6.19260
Cl         0.44820        3.00530       -7.09730
Cl        -2.48390        2.88660       -8.51320
C          1.02040        1.94990       -3.95890
S          0.99050        0.57640       -5.03100
C         -0.78150        4.85250       -2.43390
C         -0.42650        5.50400       -1.29060
S          1.12090        4.96710       -0.67050
C         -1.17450        6.43750       -0.51610
C         -0.74380        7.06070        0.61680
C         -1.75520        7.78640        1.28820
C         -1.66070        8.45810        2.52090
C         -0.40240        8.50570        3.24700
S          0.50530        7.05700        3.57160
C          1.77730        7.93010        4.35530
C          2.99560        7.22430        4.83850
C          3.83900        6.72340        3.66350
C          1.49490        9.26300        4.36750
Cl         2.52080       10.45630        5.05200
C          0.25790        9.59290        3.74840
Cl        -0.27810       11.21110        3.57760
C         -2.82570        9.03070        3.01370
C         -4.05710        8.97960        2.31270
C         -4.15010        8.30970        1.08010
C         -5.42370        8.19120        0.38890
S         -5.58800        8.64710       -1.28070
C         -7.27240        8.25290       -1.30560
C         -8.10370        8.48100       -2.51940
C         -8.65630        9.90830       -2.54240
C         -7.66940        7.79860       -0.08340
C         -6.62450        7.75300        0.87730
Cl        -6.86530        7.11910        2.45660
Cl        -9.27420        7.31430        0.28320
C         -2.98760        7.73080        0.59200
S         -2.85950        6.77240       -0.85850
C         -5.09890        9.60550        3.03510
C         -4.71830       10.04530        4.26910
S         -3.01380        9.79690        4.56530
C         -5.60230       10.56410        5.26560
C         -6.94770       10.34380        5.29760
C         -7.59300       10.93600        6.40880
C         -8.95810       10.88800        6.73820
C         -9.89990       10.16400        5.89930
S        -10.01130       10.46530        4.18850
C        -11.22450        9.25230        3.96860
C        -11.83080        8.99460        2.63380
C        -13.04810        9.89170        2.39980
C        -11.52530        8.66630        5.16150
Cl       -12.68450        7.41480        5.34410
C        -10.77460        9.17510        6.25570
Cl       -10.90560        8.52290        7.83460
C         -9.34550       11.54540        7.89950
C         -8.42900       12.22410        8.74020
C         -7.06620       12.26960        8.40800
C         -6.10930       12.98870        9.23470
S         -4.68640       12.21170        9.86060
C         -4.15580       13.65340       10.65660
C         -2.92260       13.66480       11.49070
C         -3.21310       13.16090       12.90650
C         -5.04080       14.66760       10.44180
C         -6.14760       14.29580        9.63250
Cl        -7.35970       15.41210        9.15100
Cl        -4.85200       16.25350       11.07020
C         -6.67590       11.60960        7.25020
S         -5.05130       11.51240        6.62740
C         -9.07940       12.78560        9.87770
C        -10.41250       12.58290        9.87110
S        -10.97110       11.68400        8.50450
H          5.94620      -19.17600        1.96340
H          6.10230      -16.62720        2.47170
H          6.30670      -11.75170        5.35170
H          5.22720      -13.13490        5.61560
H          3.34810      -11.86390        4.57740
H          4.01680      -10.99520        5.96330
H          4.42090      -10.48430        4.32120
H          5.25310      -19.18670       -6.90150
H          3.61570      -19.86280       -6.84380
H          3.82100      -18.16610       -8.65510
H          2.68460      -17.61260       -7.42170
H          4.32390      -16.95180       -7.47400
H          4.05670      -14.81360       -4.13040
H          2.42550      -13.71070       -5.11100
H          2.01160      -12.56030       -6.39630
H          4.69870      -14.01300       -6.18640
H          3.38410      -14.43340       -7.29310
H          4.21760      -12.88460       -7.45340
H          5.13790       -7.63570       -3.42290
H          7.49340       -5.37110        1.36400
H          5.87590       -6.08490        1.50280
H          6.63510       -8.06510        0.18440
H          8.25430       -7.36700        0.07130
H          7.60850       -7.84980        1.64210
H          0.43930       -6.12800      -10.97760
H         -1.17460       -5.48000      -10.62370
H         -0.09410       -4.24160      -12.49820
H          1.25320       -3.80760      -11.44070
H         -0.36510       -3.18020      -11.11290
H          1.69520       -2.03100       -6.22430
H          3.77830        0.47480       -2.71650
H          6.55690        1.81860        2.05350
H          5.17440        0.75670        2.36620
H          7.16360        0.41380        0.06950
H          5.77570       -0.63060        0.38500
H          7.10930       -0.55900        1.54120
H         -5.32600        3.41950       -5.45220
H         -4.96640        3.30720       -7.18670
H         -6.32560        1.36560       -6.43980
H         -5.09290        0.94550       -5.24500
H         -4.72720        0.83170       -6.96910
H         -1.69690        5.06200       -2.95660
H          0.26940        6.97650        0.96410
H          3.57980        7.91570        5.44770
H          2.70320        6.37440        5.45930
H          3.26390        6.03120        3.05210
H          4.15330        7.55710        3.04050
H          4.72440        6.21090        4.02970
H         -8.93180        7.76950       -2.51740
H         -7.49690        8.31130       -3.41000
H         -9.26100       10.06010       -3.43220
H         -9.27400       10.08750       -1.66610
H         -7.84120       10.62790       -2.54650
H         -6.09290        9.73530        2.65180
H         -7.45660        9.74740        4.56450
H        -11.08660        9.17810        1.85720
H        -12.13490        7.94700        2.58490
H        -12.75880       10.93930        2.43920
H        -13.48150        9.68490        1.42510
H        -13.80140        9.71010        3.16220
H         -2.16660       13.02890       11.02700
H         -2.54130       14.68650       11.53730
H         -3.58970       12.14130       12.87410
H         -3.95720       13.79190       13.38610
H         -2.30470       13.17930       13.50260
H         -8.55980       13.30700       10.65990
H        -11.13050       12.90230       10.60100
