
  xtb     03072215293D
 energy: -321.389717406524 gnorm: 0.000248588556 xtb: 6.4.1 (unknown)
188205  0     0  0            999 V2000
    5.5895  -13.7781    9.3721 C   0  0  0  0  0  0  0  0  0  0  0  0
    4.6650  -13.8088    8.3688 C   0  0  0  0  0  0  0  0  0  0  0  0
    4.0919  -15.0356    7.7403 C   0  0  0  0  0  0  0  0  0  0  0  0
    2.6551  -15.2594    8.2126 C   0  0  0  0  0  0  0  0  0  0  0  0
    4.2450  -12.5913    7.9629 N   0  0  0  0  0  0  0  0  0  0  0  0
    4.8034  -11.6194    8.6069 C   0  0  0  0  0  0  0  0  0  0  0  0
    5.9568  -12.1626    9.8270 S   0  0  0  0  0  0  0  0  0  0  0  0
    4.5114  -10.2528    8.3449 C   0  0  0  0  0  0  0  0  0  0  0  0
    4.9894   -9.0804    8.9069 C   0  0  0  0  0  0  0  0  0  0  0  0
    6.0208   -8.9492    9.9767 C   0  0  0  0  0  0  0  0  0  0  0  0
    7.4310   -9.0220    9.3878 C   0  0  0  0  0  0  0  0  0  0  0  0
    4.4685   -7.9601    8.3821 N   0  0  0  0  0  0  0  0  0  0  0  0
    3.6041   -8.1854    7.4426 C   0  0  0  0  0  0  0  0  0  0  0  0
    3.3432   -9.8916    7.1082 S   0  0  0  0  0  0  0  0  0  0  0  0
    2.9259   -7.1706    6.7146 C   0  0  0  0  0  0  0  0  0  0  0  0
    1.9733   -7.3267    5.7498 C   0  0  0  0  0  0  0  0  0  0  0  0
    1.5208   -6.1012    5.2038 C   0  0  0  0  0  0  0  0  0  0  0  0
    0.5874   -5.9109    4.1686 C   0  0  0  0  0  0  0  0  0  0  0  0
   -0.1474   -7.0356    3.5793 C   0  0  0  0  0  0  0  0  0  0  0  0
   -0.2218   -7.2016    2.1999 C   0  0  0  0  0  0  0  0  0  0  0  0
   -0.9265   -8.2497    1.6402 C   0  0  0  0  0  0  0  0  0  0  0  0
   -1.5862   -9.1731    2.4429 C   0  0  0  0  0  0  0  0  0  0  0  0
   -2.5416  -10.5379    1.8745 S   0  0  0  0  0  0  0  0  0  0  0  0
   -2.2097  -10.6101    0.0806 C   0  0  0  0  0  0  0  0  0  0  0  0
   -0.8254  -11.1481   -0.2296 C   0  0  0  0  0  0  0  0  0  0  0  0
   -1.5088   -8.9902    3.8258 C   0  0  0  0  0  0  0  0  0  0  0  0
   -2.1478   -9.8585    4.6356 F   0  0  0  0  0  0  0  0  0  0  0  0
   -0.8080   -7.9527    4.3960 C   0  0  0  0  0  0  0  0  0  0  0  0
    0.3969   -4.6071    3.7393 C   0  0  0  0  0  0  0  0  0  0  0  0
    1.0738   -3.4988    4.3076 C   0  0  0  0  0  0  0  0  0  0  0  0
    1.9938   -3.6863    5.3525 C   0  0  0  0  0  0  0  0  0  0  0  0
    2.7169   -2.5491    5.9340 C   0  0  0  0  0  0  0  0  0  0  0  0
    2.7522   -2.3476    7.3099 C   0  0  0  0  0  0  0  0  0  0  0  0
    3.4048   -1.2600    7.8581 C   0  0  0  0  0  0  0  0  0  0  0  0
    4.0589   -0.3387    7.0483 C   0  0  0  0  0  0  0  0  0  0  0  0
    4.8996    1.1069    7.6013 S   0  0  0  0  0  0  0  0  0  0  0  0
    5.0376    0.8865    9.4076 C   0  0  0  0  0  0  0  0  0  0  0  0
    6.0409   -0.1874    9.7834 C   0  0  0  0  0  0  0  0  0  0  0  0
    4.0259   -0.5604    5.6701 C   0  0  0  0  0  0  0  0  0  0  0  0
    3.3748   -1.6355    5.1109 C   0  0  0  0  0  0  0  0  0  0  0  0
    4.6526    0.3120    4.8528 F   0  0  0  0  0  0  0  0  0  0  0  0
    2.1880   -4.9903    5.7831 C   0  0  0  0  0  0  0  0  0  0  0  0
    3.3183   -5.4944    7.0141 S   0  0  0  0  0  0  0  0  0  0  0  0
    0.6810   -2.2784    3.7067 C   0  0  0  0  0  0  0  0  0  0  0  0
   -0.2373   -2.4269    2.7107 C   0  0  0  0  0  0  0  0  0  0  0  0
   -0.7013   -4.1005    2.4788 S   0  0  0  0  0  0  0  0  0  0  0  0
   -0.7282   -1.4001    1.8524 C   0  0  0  0  0  0  0  0  0  0  0  0
   -1.6718   -1.4800    0.8722 C   0  0  0  0  0  0  0  0  0  0  0  0
   -1.8198   -0.2807    0.1275 C   0  0  0  0  0  0  0  0  0  0  0  0
   -2.6488   -0.0348   -0.9819 C   0  0  0  0  0  0  0  0  0  0  0  0
   -3.5334   -1.0719   -1.5263 C   0  0  0  0  0  0  0  0  0  0  0  0
   -4.8821   -0.8090   -1.7628 C   0  0  0  0  0  0  0  0  0  0  0  0
   -5.7073   -1.7836   -2.2780 C   0  0  0  0  0  0  0  0  0  0  0  0
   -5.2303   -3.0606   -2.5777 C   0  0  0  0  0  0  0  0  0  0  0  0
   -6.4112   -4.2209   -3.1864 S   0  0  0  0  0  0  0  0  0  0  0  0
   -5.4315   -5.3903   -4.2113 C   0  0  0  0  0  0  0  0  0  0  0  0
   -6.3718   -6.1039   -5.1625 C   0  0  0  0  0  0  0  0  0  0  0  0
   -3.8853   -3.3118   -2.3243 C   0  0  0  0  0  0  0  0  0  0  0  0
   -3.3438   -4.5311   -2.5581 F   0  0  0  0  0  0  0  0  0  0  0  0
   -3.0443   -2.3399   -1.8211 C   0  0  0  0  0  0  0  0  0  0  0  0
   -2.5682    1.2271   -1.5527 C   0  0  0  0  0  0  0  0  0  0  0  0
   -1.6911    2.2342   -1.0794 C   0  0  0  0  0  0  0  0  0  0  0  0
   -0.8660    1.9937    0.0282 C   0  0  0  0  0  0  0  0  0  0  0  0
    0.1041    2.9851    0.5086 C   0  0  0  0  0  0  0  0  0  0  0  0
    1.0180    3.5762   -0.3629 C   0  0  0  0  0  0  0  0  0  0  0  0
    1.9761    4.4466    0.1105 C   0  0  0  0  0  0  0  0  0  0  0  0
    2.0531    4.7734    1.4627 C   0  0  0  0  0  0  0  0  0  0  0  0
    3.3320    5.8838    1.9701 S   0  0  0  0  0  0  0  0  0  0  0  0
    3.9293    5.1573    3.5433 C   0  0  0  0  0  0  0  0  0  0  0  0
    4.3393    3.7074    3.3881 C   0  0  0  0  0  0  0  0  0  0  0  0
    1.1019    4.2159    2.3122 C   0  0  0  0  0  0  0  0  0  0  0  0
    0.1549    3.3216    1.8568 C   0  0  0  0  0  0  0  0  0  0  0  0
    1.0723    4.5366    3.6230 F   0  0  0  0  0  0  0  0  0  0  0  0
   -0.9646    0.7413    0.6109 C   0  0  0  0  0  0  0  0  0  0  0  0
    0.0056    0.1892    1.9468 S   0  0  0  0  0  0  0  0  0  0  0  0
   -1.7573    3.4086   -1.8646 C   0  0  0  0  0  0  0  0  0  0  0  0
   -2.6074    3.3125   -2.9251 C   0  0  0  0  0  0  0  0  0  0  0  0
   -3.4239    1.7616   -2.9812 S   0  0  0  0  0  0  0  0  0  0  0  0
   -2.7805    4.2990   -3.9394 C   0  0  0  0  0  0  0  0  0  0  0  0
   -3.5924    4.2956   -5.0333 C   0  0  0  0  0  0  0  0  0  0  0  0
   -3.4094    5.4233   -5.8778 C   0  0  0  0  0  0  0  0  0  0  0  0
   -4.0400    5.7198   -7.0980 C   0  0  0  0  0  0  0  0  0  0  0  0
   -5.0376    4.8188   -7.6877 C   0  0  0  0  0  0  0  0  0  0  0  0
   -4.7710    3.4630   -7.8537 C   0  0  0  0  0  0  0  0  0  0  0  0
   -5.7049    2.6132   -8.4147 C   0  0  0  0  0  0  0  0  0  0  0  0
   -6.9417    3.0908   -8.8324 C   0  0  0  0  0  0  0  0  0  0  0  0
   -8.2348    2.1211   -9.5324 S   0  0  0  0  0  0  0  0  0  0  0  0
   -7.4254    0.5471   -9.9815 C   0  0  0  0  0  0  0  0  0  0  0  0
   -6.4851    0.7004  -11.1620 C   0  0  0  0  0  0  0  0  0  0  0  0
   -7.1963    4.4526   -8.6566 C   0  0  0  0  0  0  0  0  0  0  0  0
   -8.3902    4.9474   -9.0371 F   0  0  0  0  0  0  0  0  0  0  0  0
   -6.2736    5.3104   -8.1029 C   0  0  0  0  0  0  0  0  0  0  0  0
   -3.6571    6.8957   -7.7279 C   0  0  0  0  0  0  0  0  0  0  0  0
   -2.6675    7.7707   -7.2149 C   0  0  0  0  0  0  0  0  0  0  0  0
   -2.0404    7.4782   -5.9963 C   0  0  0  0  0  0  0  0  0  0  0  0
   -0.9728    8.3019   -5.4140 C   0  0  0  0  0  0  0  0  0  0  0  0
    0.1820    8.6132   -6.1290 C   0  0  0  0  0  0  0  0  0  0  0  0
    1.2315    9.2621   -5.5134 C   0  0  0  0  0  0  0  0  0  0  0  0
    1.1659    9.6440   -4.1743 C   0  0  0  0  0  0  0  0  0  0  0  0
    2.5855   10.4326   -3.4760 S   0  0  0  0  0  0  0  0  0  0  0  0
    2.6813    9.7570   -1.7748 C   0  0  0  0  0  0  0  0  0  0  0  0
    2.7506    8.2433   -1.7549 C   0  0  0  0  0  0  0  0  0  0  0  0
   -0.0244    9.3957   -3.4972 C   0  0  0  0  0  0  0  0  0  0  0  0
   -1.0695    8.7188   -4.0905 C   0  0  0  0  0  0  0  0  0  0  0  0
   -0.1967    9.8068   -2.2227 F   0  0  0  0  0  0  0  0  0  0  0  0
   -2.4398    6.3151   -5.3580 C   0  0  0  0  0  0  0  0  0  0  0  0
   -1.7601    5.7246   -3.8684 S   0  0  0  0  0  0  0  0  0  0  0  0
   -2.4415    8.8851   -8.0621 C   0  0  0  0  0  0  0  0  0  0  0  0
   -3.1942    8.8702   -9.1984 C   0  0  0  0  0  0  0  0  0  0  0  0
   -4.2500    7.4671   -9.2635 S   0  0  0  0  0  0  0  0  0  0  0  0
   -3.2266    9.8022  -10.2850 C   0  0  0  0  0  0  0  0  0  0  0  0
   -2.3690   10.8340  -10.6213 C   0  0  0  0  0  0  0  0  0  0  0  0
   -1.1038   11.2423   -9.9384 C   0  0  0  0  0  0  0  0  0  0  0  0
    0.0010   10.2025  -10.1317 C   0  0  0  0  0  0  0  0  0  0  0  0
   -2.7208   11.5071  -11.7410 N   0  0  0  0  0  0  0  0  0  0  0  0
   -3.7923   11.0534  -12.2793 C   0  0  0  0  0  0  0  0  0  0  0  0
   -4.5130    9.7127  -11.4597 S   0  0  0  0  0  0  0  0  0  0  0  0
    6.0717  -14.5992    9.8621 H   0  0  0  0  0  0  0  0  0  0  0  0
    4.0972  -14.9044    6.6567 H   0  0  0  0  0  0  0  0  0  0  0  0
    4.7114  -15.8970    7.9951 H   0  0  0  0  0  0  0  0  0  0  0  0
    2.0465  -14.3929    7.9677 H   0  0  0  0  0  0  0  0  0  0  0  0
    2.2311  -16.1351    7.7277 H   0  0  0  0  0  0  0  0  0  0  0  0
    2.6276  -15.4102    9.2898 H   0  0  0  0  0  0  0  0  0  0  0  0
    5.8900   -9.7330   10.7250 H   0  0  0  0  0  0  0  0  0  0  0  0
    5.8782   -7.9783   10.4528 H   0  0  0  0  0  0  0  0  0  0  0  0
    8.1700   -8.9029   10.1755 H   0  0  0  0  0  0  0  0  0  0  0  0
    7.5964   -9.9802    8.9010 H   0  0  0  0  0  0  0  0  0  0  0  0
    7.5692   -8.2312    8.6546 H   0  0  0  0  0  0  0  0  0  0  0  0
    1.6280   -8.2925    5.4270 H   0  0  0  0  0  0  0  0  0  0  0  0
    0.2945   -6.5120    1.5500 H   0  0  0  0  0  0  0  0  0  0  0  0
   -0.9602   -8.3335    0.5666 H   0  0  0  0  0  0  0  0  0  0  0  0
   -2.9789  -11.2860   -0.2932 H   0  0  0  0  0  0  0  0  0  0  0  0
   -2.3811   -9.6223   -0.3449 H   0  0  0  0  0  0  0  0  0  0  0  0
   -0.7106  -12.1466    0.1855 H   0  0  0  0  0  0  0  0  0  0  0  0
   -0.6812  -11.2003   -1.3071 H   0  0  0  0  0  0  0  0  0  0  0  0
   -0.0521  -10.5113    0.1945 H   0  0  0  0  0  0  0  0  0  0  0  0
   -0.8016   -7.8492    5.4697 H   0  0  0  0  0  0  0  0  0  0  0  0
    2.2406   -3.0378    7.9626 H   0  0  0  0  0  0  0  0  0  0  0  0
    3.3869   -1.1320    8.9279 H   0  0  0  0  0  0  0  0  0  0  0  0
    5.3673    1.8645    9.7583 H   0  0  0  0  0  0  0  0  0  0  0  0
    4.0447    0.6918    9.8108 H   0  0  0  0  0  0  0  0  0  0  0  0
    7.0227    0.0628    9.3886 H   0  0  0  0  0  0  0  0  0  0  0  0
    6.1108   -0.2644   10.8668 H   0  0  0  0  0  0  0  0  0  0  0  0
    5.7481   -1.1560    9.3839 H   0  0  0  0  0  0  0  0  0  0  0  0
    3.4042   -1.7677    4.0407 H   0  0  0  0  0  0  0  0  0  0  0  0
    1.0577   -1.3162    4.0037 H   0  0  0  0  0  0  0  0  0  0  0  0
   -2.2415   -2.3740    0.6932 H   0  0  0  0  0  0  0  0  0  0  0  0
   -5.2872    0.1632   -1.5284 H   0  0  0  0  0  0  0  0  0  0  0  0
   -6.7506   -1.5758   -2.4577 H   0  0  0  0  0  0  0  0  0  0  0  0
   -4.6912   -4.8041   -4.7538 H   0  0  0  0  0  0  0  0  0  0  0  0
   -4.9326   -6.0962   -3.5494 H   0  0  0  0  0  0  0  0  0  0  0  0
   -7.1215   -6.6640   -4.6083 H   0  0  0  0  0  0  0  0  0  0  0  0
   -5.8088   -6.7960   -5.7851 H   0  0  0  0  0  0  0  0  0  0  0  0
   -6.8815   -5.3892   -5.8047 H   0  0  0  0  0  0  0  0  0  0  0  0
   -2.0034   -2.5839   -1.6744 H   0  0  0  0  0  0  0  0  0  0  0  0
    1.0030    3.3167   -1.4104 H   0  0  0  0  0  0  0  0  0  0  0  0
    2.6972    4.8834   -0.5628 H   0  0  0  0  0  0  0  0  0  0  0  0
    4.7847    5.7845    3.7944 H   0  0  0  0  0  0  0  0  0  0  0  0
    3.1606    5.2856    4.3023 H   0  0  0  0  0  0  0  0  0  0  0  0
    3.4859    3.0829    3.1309 H   0  0  0  0  0  0  0  0  0  0  0  0
    4.7541    3.3400    4.3242 H   0  0  0  0  0  0  0  0  0  0  0  0
    5.0906    3.6014    2.6085 H   0  0  0  0  0  0  0  0  0  0  0  0
   -0.5549    2.9157    2.5607 H   0  0  0  0  0  0  0  0  0  0  0  0
   -1.1898    4.2972   -1.6540 H   0  0  0  0  0  0  0  0  0  0  0  0
   -4.3014    3.5104   -5.2263 H   0  0  0  0  0  0  0  0  0  0  0  0
   -3.8097    3.0689   -7.5598 H   0  0  0  0  0  0  0  0  0  0  0  0
   -5.4588    1.5688   -8.5181 H   0  0  0  0  0  0  0  0  0  0  0  0
   -6.9288    0.1438   -9.0999 H   0  0  0  0  0  0  0  0  0  0  0  0
   -8.2620   -0.1041  -10.2350 H   0  0  0  0  0  0  0  0  0  0  0  0
   -6.0520   -0.2645  -11.4188 H   0  0  0  0  0  0  0  0  0  0  0  0
   -5.6789    1.3943  -10.9334 H   0  0  0  0  0  0  0  0  0  0  0  0
   -7.0272    1.0793  -12.0251 H   0  0  0  0  0  0  0  0  0  0  0  0
   -6.5316    6.3505   -7.9821 H   0  0  0  0  0  0  0  0  0  0  0  0
    0.2750    8.3001   -7.1578 H   0  0  0  0  0  0  0  0  0  0  0  0
    2.1391    9.4709   -6.0583 H   0  0  0  0  0  0  0  0  0  0  0  0
    1.8409   10.1339   -1.1964 H   0  0  0  0  0  0  0  0  0  0  0  0
    3.6017   10.1962   -1.3900 H   0  0  0  0  0  0  0  0  0  0  0  0
    2.8989    7.8997   -0.7326 H   0  0  0  0  0  0  0  0  0  0  0  0
    1.8287    7.8047   -2.1334 H   0  0  0  0  0  0  0  0  0  0  0  0
    3.5787    7.8912   -2.3668 H   0  0  0  0  0  0  0  0  0  0  0  0
   -1.9638    8.5403   -3.5139 H   0  0  0  0  0  0  0  0  0  0  0  0
   -1.7568    9.6681   -7.8005 H   0  0  0  0  0  0  0  0  0  0  0  0
   -0.7922   12.1887  -10.3815 H   0  0  0  0  0  0  0  0  0  0  0  0
   -1.2845   11.4090   -8.8749 H   0  0  0  0  0  0  0  0  0  0  0  0
    0.9037   10.5165   -9.6137 H   0  0  0  0  0  0  0  0  0  0  0  0
   -0.3060    9.2337   -9.7449 H   0  0  0  0  0  0  0  0  0  0  0  0
    0.2276   10.0928  -11.1893 H   0  0  0  0  0  0  0  0  0  0  0  0
   -4.2319   11.4557  -13.1699 H   0  0  0  0  0  0  0  0  0  0  0  0
  1  2  2  0  0  0  0
  2  3  1  0  0  0  0
  3  4  1  0  0  0  0
  2  5  1  0  0  0  0
  5  6  2  0  0  0  0
  6  7  1  0  0  0  0
  6  8  1  0  0  0  0
  8  9  2  0  0  0  0
  9 10  1  0  0  0  0
 10 11  1  0  0  0  0
  9 12  1  0  0  0  0
 12 13  2  0  0  0  0
 13 14  1  0  0  0  0
 13 15  1  0  0  0  0
 15 16  2  0  0  0  0
 16 17  1  0  0  0  0
 17 18  2  0  0  0  0
 18 19  1  0  0  0  0
 19 20  2  0  0  0  0
 20 21  1  0  0  0  0
 21 22  2  0  0  0  0
 22 23  1  0  0  0  0
 23 24  1  0  0  0  0
 24 25  1  0  0  0  0
 22 26  1  0  0  0  0
 26 27  1  0  0  0  0
 26 28  2  0  0  0  0
 18 29  1  0  0  0  0
 29 30  2  0  0  0  0
 30 31  1  0  0  0  0
 31 32  1  0  0  0  0
 32 33  2  0  0  0  0
 33 34  1  0  0  0  0
 34 35  2  0  0  0  0
 35 36  1  0  0  0  0
 36 37  1  0  0  0  0
 37 38  1  0  0  0  0
 35 39  1  0  0  0  0
 39 40  2  0  0  0  0
 39 41  1  0  0  0  0
 31 42  2  0  0  0  0
 42 43  1  0  0  0  0
 30 44  1  0  0  0  0
 44 45  2  0  0  0  0
 45 46  1  0  0  0  0
 45 47  1  0  0  0  0
 47 48  2  0  0  0  0
 48 49  1  0  0  0  0
 49 50  2  0  0  0  0
 50 51  1  0  0  0  0
 51 52  2  0  0  0  0
 52 53  1  0  0  0  0
 53 54  2  0  0  0  0
 54 55  1  0  0  0  0
 55 56  1  0  0  0  0
 56 57  1  0  0  0  0
 54 58  1  0  0  0  0
 58 59  1  0  0  0  0
 58 60  2  0  0  0  0
 50 61  1  0  0  0  0
 61 62  2  0  0  0  0
 62 63  1  0  0  0  0
 63 64  1  0  0  0  0
 64 65  2  0  0  0  0
 65 66  1  0  0  0  0
 66 67  2  0  0  0  0
 67 68  1  0  0  0  0
 68 69  1  0  0  0  0
 69 70  1  0  0  0  0
 67 71  1  0  0  0  0
 71 72  2  0  0  0  0
 71 73  1  0  0  0  0
 63 74  2  0  0  0  0
 74 75  1  0  0  0  0
 62 76  1  0  0  0  0
 76 77  2  0  0  0  0
 77 78  1  0  0  0  0
 77 79  1  0  0  0  0
 79 80  2  0  0  0  0
 80 81  1  0  0  0  0
 81 82  2  0  0  0  0
 82 83  1  0  0  0  0
 83 84  2  0  0  0  0
 84 85  1  0  0  0  0
 85 86  2  0  0  0  0
 86 87  1  0  0  0  0
 87 88  1  0  0  0  0
 88 89  1  0  0  0  0
 86 90  1  0  0  0  0
 90 91  1  0  0  0  0
 90 92  2  0  0  0  0
 82 93  1  0  0  0  0
 93 94  2  0  0  0  0
 94 95  1  0  0  0  0
 95 96  1  0  0  0  0
 96 97  2  0  0  0  0
 97 98  1  0  0  0  0
 98 99  2  0  0  0  0
 99100  1  0  0  0  0
100101  1  0  0  0  0
101102  1  0  0  0  0
 99103  1  0  0  0  0
103104  2  0  0  0  0
103105  1  0  0  0  0
 95106  2  0  0  0  0
106107  1  0  0  0  0
 94108  1  0  0  0  0
108109  2  0  0  0  0
109110  1  0  0  0  0
109111  1  0  0  0  0
111112  2  0  0  0  0
112113  1  0  0  0  0
113114  1  0  0  0  0
112115  1  0  0  0  0
115116  2  0  0  0  0
116117  1  0  0  0  0
  7  1  1  0  0  0  0
 14  8  1  0  0  0  0
 43 15  1  0  0  0  0
 75 47  1  0  0  0  0
107 79  1  0  0  0  0
117111  1  0  0  0  0
 42 17  1  0  0  0  0
 74 49  1  0  0  0  0
106 81  1  0  0  0  0
 28 19  1  0  0  0  0
 46 29  1  0  0  0  0
 60 51  1  0  0  0  0
 78 61  1  0  0  0  0
 92 83  1  0  0  0  0
110 93  1  0  0  0  0
 40 32  1  0  0  0  0
 72 64  1  0  0  0  0
104 96  1  0  0  0  0
  1118  1  0  0  0  0
  3119  1  0  0  0  0
  3120  1  0  0  0  0
  4121  1  0  0  0  0
  4122  1  0  0  0  0
  4123  1  0  0  0  0
 10124  1  0  0  0  0
 10125  1  0  0  0  0
 11126  1  0  0  0  0
 11127  1  0  0  0  0
 11128  1  0  0  0  0
 16129  1  0  0  0  0
 20130  1  0  0  0  0
 21131  1  0  0  0  0
 24132  1  0  0  0  0
 24133  1  0  0  0  0
 25134  1  0  0  0  0
 25135  1  0  0  0  0
 25136  1  0  0  0  0
 28137  1  0  0  0  0
 33138  1  0  0  0  0
 34139  1  0  0  0  0
 37140  1  0  0  0  0
 37141  1  0  0  0  0
 38142  1  0  0  0  0
 38143  1  0  0  0  0
 38144  1  0  0  0  0
 40145  1  0  0  0  0
 44146  1  0  0  0  0
 48147  1  0  0  0  0
 52148  1  0  0  0  0
 53149  1  0  0  0  0
 56150  1  0  0  0  0
 56151  1  0  0  0  0
 57152  1  0  0  0  0
 57153  1  0  0  0  0
 57154  1  0  0  0  0
 60155  1  0  0  0  0
 65156  1  0  0  0  0
 66157  1  0  0  0  0
 69158  1  0  0  0  0
 69159  1  0  0  0  0
 70160  1  0  0  0  0
 70161  1  0  0  0  0
 70162  1  0  0  0  0
 72163  1  0  0  0  0
 76164  1  0  0  0  0
 80165  1  0  0  0  0
 84166  1  0  0  0  0
 85167  1  0  0  0  0
 88168  1  0  0  0  0
 88169  1  0  0  0  0
 89170  1  0  0  0  0
 89171  1  0  0  0  0
 89172  1  0  0  0  0
 92173  1  0  0  0  0
 97174  1  0  0  0  0
 98175  1  0  0  0  0
101176  1  0  0  0  0
101177  1  0  0  0  0
102178  1  0  0  0  0
102179  1  0  0  0  0
102180  1  0  0  0  0
104181  1  0  0  0  0
108182  1  0  0  0  0
113183  1  0  0  0  0
113184  1  0  0  0  0
114185  1  0  0  0  0
114186  1  0  0  0  0
114187  1  0  0  0  0
116188  1  0  0  0  0
M  END
