
  xtb     03072217013D
 energy: -265.097814101100 gnorm: 0.000605903097 xtb: 6.4.1 (unknown)
154167  0     0  0            999 V2000
   -3.1757    8.7493   -2.0811 C   0  0  0  0  0  0  0  0  0  0  0  0
   -3.1257    8.4182   -3.7647 S   0  0  0  0  0  0  0  0  0  0  0  0
   -3.2019    6.7029   -3.4537 C   0  0  0  0  0  0  0  0  0  0  0  0
   -3.2699    6.4491   -2.1046 C   0  0  0  0  0  0  0  0  0  0  0  0
   -3.2520    7.6189   -1.3275 C   0  0  0  0  0  0  0  0  0  0  0  0
   -3.1744    5.7657   -4.4760 C   0  0  0  0  0  0  0  0  0  0  0  0
   -3.1223    4.8907   -5.3175 C   0  0  0  0  0  0  0  0  0  0  0  0
   -3.0614    3.8896   -6.2823 C   0  0  0  0  0  0  0  0  0  0  0  0
   -2.8399    2.5824   -6.0164 C   0  0  0  0  0  0  0  0  0  0  0  0
   -2.6048    2.0049   -4.7341 C   0  0  0  0  0  0  0  0  0  0  0  0
   -2.2985    0.6939   -4.4885 C   0  0  0  0  0  0  0  0  0  0  0  0
   -2.0507    0.4001   -3.1257 C   0  0  0  0  0  0  0  0  0  0  0  0
   -1.7025   -0.8335   -2.5424 C   0  0  0  0  0  0  0  0  0  0  0  0
   -1.3475   -1.9946   -3.3632 C   0  0  0  0  0  0  0  0  0  0  0  0
   -0.4857   -1.8386   -4.4508 C   0  0  0  0  0  0  0  0  0  0  0  0
   -0.0902   -2.9253   -5.1983 C   0  0  0  0  0  0  0  0  0  0  0  0
   -0.5199   -4.2152   -4.8896 C   0  0  0  0  0  0  0  0  0  0  0  0
    0.1070   -5.5329   -5.8899 S   0  0  0  0  0  0  0  0  0  0  0  0
   -1.2864   -6.7097   -6.0339 C   0  0  0  0  0  0  0  0  0  0  0  0
   -2.5195   -6.0596   -6.6279 C   0  0  0  0  0  0  0  0  0  0  0  0
   -1.3530   -4.3611   -3.7858 C   0  0  0  0  0  0  0  0  0  0  0  0
   -1.7818   -5.5829   -3.3959 F   0  0  0  0  0  0  0  0  0  0  0  0
   -1.7799   -3.2775   -3.0451 C   0  0  0  0  0  0  0  0  0  0  0  0
   -1.6252   -0.8611   -1.1564 C   0  0  0  0  0  0  0  0  0  0  0  0
   -1.7430    0.2998   -0.3504 C   0  0  0  0  0  0  0  0  0  0  0  0
   -2.0217    1.5440   -0.9384 C   0  0  0  0  0  0  0  0  0  0  0  0
   -2.0605    2.7706   -0.1319 C   0  0  0  0  0  0  0  0  0  0  0  0
   -2.8166    2.8500    1.0341 C   0  0  0  0  0  0  0  0  0  0  0  0
   -2.7966    3.9793    1.8295 C   0  0  0  0  0  0  0  0  0  0  0  0
   -2.0099    5.0733    1.4910 C   0  0  0  0  0  0  0  0  0  0  0  0
   -1.8708    6.5669    2.4163 S   0  0  0  0  0  0  0  0  0  0  0  0
   -2.6636    6.1883    4.0156 C   0  0  0  0  0  0  0  0  0  0  0  0
   -1.8287    5.2588    4.8758 C   0  0  0  0  0  0  0  0  0  0  0  0
   -1.2875    4.9969    0.3002 C   0  0  0  0  0  0  0  0  0  0  0  0
   -1.3055    3.8814   -0.5050 C   0  0  0  0  0  0  0  0  0  0  0  0
   -0.5270    6.0481   -0.0722 F   0  0  0  0  0  0  0  0  0  0  0  0
   -2.2077    1.5502   -2.3125 C   0  0  0  0  0  0  0  0  0  0  0  0
   -2.6258    2.9517   -3.2590 S   0  0  0  0  0  0  0  0  0  0  0  0
   -1.5285    0.0197    1.0205 C   0  0  0  0  0  0  0  0  0  0  0  0
   -1.3381   -1.3025    1.2863 C   0  0  0  0  0  0  0  0  0  0  0  0
   -1.3197   -2.2718   -0.1717 S   0  0  0  0  0  0  0  0  0  0  0  0
   -1.2149   -1.9029    2.5709 C   0  0  0  0  0  0  0  0  0  0  0  0
   -0.8077   -0.9203    3.9453 S   0  0  0  0  0  0  0  0  0  0  0  0
   -0.8856   -2.3159    4.9943 C   0  0  0  0  0  0  0  0  0  0  0  0
   -1.2429   -3.4485    4.2982 C   0  0  0  0  0  0  0  0  0  0  0  0
   -1.4149   -3.2162    2.9315 C   0  0  0  0  0  0  0  0  0  0  0  0
   -0.5570   -2.1650    6.3285 C   0  0  0  0  0  0  0  0  0  0  0  0
   -0.1959   -1.8868    7.4555 C   0  0  0  0  0  0  0  0  0  0  0  0
    0.1616   -1.5820    8.7616 C   0  0  0  0  0  0  0  0  0  0  0  0
    0.6224   -0.3671    9.1445 C   0  0  0  0  0  0  0  0  0  0  0  0
    0.8522    0.7614    8.3066 C   0  0  0  0  0  0  0  0  0  0  0  0
    0.7682    0.7117    6.5659 S   0  0  0  0  0  0  0  0  0  0  0  0
    1.1424    2.4149    6.4656 C   0  0  0  0  0  0  0  0  0  0  0  0
    1.3253    2.9614    7.7198 C   0  0  0  0  0  0  0  0  0  0  0  0
    1.1737    2.0323    8.7459 C   0  0  0  0  0  0  0  0  0  0  0  0
    1.2130    3.0732    5.2495 C   0  0  0  0  0  0  0  0  0  0  0  0
    1.2672    3.6317    4.1702 C   0  0  0  0  0  0  0  0  0  0  0  0
    1.3242    4.3921    3.0068 C   0  0  0  0  0  0  0  0  0  0  0  0
    1.4577    3.9116    1.7507 C   0  0  0  0  0  0  0  0  0  0  0  0
    1.5875    2.5468    1.3632 C   0  0  0  0  0  0  0  0  0  0  0  0
    1.6964    2.0956    0.0764 C   0  0  0  0  0  0  0  0  0  0  0  0
    1.8153    0.6893   -0.0386 C   0  0  0  0  0  0  0  0  0  0  0  0
    1.8759   -0.0988   -1.2048 C   0  0  0  0  0  0  0  0  0  0  0  0
    1.8027    0.4771   -2.5515 C   0  0  0  0  0  0  0  0  0  0  0  0
    0.9034    1.4982   -2.8531 C   0  0  0  0  0  0  0  0  0  0  0  0
    0.8015    2.0061   -4.1293 C   0  0  0  0  0  0  0  0  0  0  0  0
    1.5765    1.5050   -5.1724 C   0  0  0  0  0  0  0  0  0  0  0  0
    1.2514    2.1447   -6.7891 S   0  0  0  0  0  0  0  0  0  0  0  0
    2.9063    2.2920   -7.5583 C   0  0  0  0  0  0  0  0  0  0  0  0
    3.8281    3.1829   -6.7506 C   0  0  0  0  0  0  0  0  0  0  0  0
    2.4793    0.4927   -4.8615 C   0  0  0  0  0  0  0  0  0  0  0  0
    3.2662   -0.0491   -5.8180 F   0  0  0  0  0  0  0  0  0  0  0  0
    2.6121   -0.0011   -3.5796 C   0  0  0  0  0  0  0  0  0  0  0  0
    1.9723   -1.4702   -1.0126 C   0  0  0  0  0  0  0  0  0  0  0  0
    2.1064   -2.0855    0.2598 C   0  0  0  0  0  0  0  0  0  0  0  0
    2.1086   -1.2909    1.4216 C   0  0  0  0  0  0  0  0  0  0  0  0
    2.3619   -1.8311    2.7629 C   0  0  0  0  0  0  0  0  0  0  0  0
    3.2118   -1.1446    3.6297 C   0  0  0  0  0  0  0  0  0  0  0  0
    3.4545   -1.5890    4.9130 C   0  0  0  0  0  0  0  0  0  0  0  0
    2.8658   -2.7551    5.3856 C   0  0  0  0  0  0  0  0  0  0  0  0
    3.0686   -3.4286    6.9984 S   0  0  0  0  0  0  0  0  0  0  0  0
    4.4245   -2.4444    7.7289 C   0  0  0  0  0  0  0  0  0  0  0  0
    3.9438   -1.1536    8.3650 C   0  0  0  0  0  0  0  0  0  0  0  0
    2.0463   -3.4544    4.5001 C   0  0  0  0  0  0  0  0  0  0  0  0
    1.7927   -3.0185    3.2191 C   0  0  0  0  0  0  0  0  0  0  0  0
    1.4754   -4.6072    4.9106 F   0  0  0  0  0  0  0  0  0  0  0  0
    1.8971    0.0710    1.2349 C   0  0  0  0  0  0  0  0  0  0  0  0
    1.6729    1.2348    2.5190 S   0  0  0  0  0  0  0  0  0  0  0  0
    2.2072   -3.4961    0.1478 C   0  0  0  0  0  0  0  0  0  0  0  0
    2.0810   -3.9589   -1.1285 C   0  0  0  0  0  0  0  0  0  0  0  0
    1.9028   -2.6597   -2.2875 S   0  0  0  0  0  0  0  0  0  0  0  0
    2.0606   -5.3055   -1.5883 C   0  0  0  0  0  0  0  0  0  0  0  0
    2.0551   -6.6404   -0.4728 S   0  0  0  0  0  0  0  0  0  0  0  0
    1.9889   -7.7800   -1.7928 C   0  0  0  0  0  0  0  0  0  0  0  0
    1.9738   -7.1349   -3.0084 C   0  0  0  0  0  0  0  0  0  0  0  0
    2.0149   -5.7446   -2.8912 C   0  0  0  0  0  0  0  0  0  0  0  0
    1.9659   -9.1479   -1.5547 C   0  0  0  0  0  0  0  0  0  0  0  0
    1.9504  -10.3371   -1.3239 C   0  0  0  0  0  0  0  0  0  0  0  0
    1.9331  -11.7200   -1.0940 C   0  0  0  0  0  0  0  0  0  0  0  0
    1.9737  -12.2611    0.1220 C   0  0  0  0  0  0  0  0  0  0  0  0
   -3.1433    9.7678   -1.7484 H   0  0  0  0  0  0  0  0  0  0  0  0
   -3.3304    5.4516   -1.7075 H   0  0  0  0  0  0  0  0  0  0  0  0
   -3.2830    7.6241   -0.2526 H   0  0  0  0  0  0  0  0  0  0  0  0
   -3.1963    4.2086   -7.3077 H   0  0  0  0  0  0  0  0  0  0  0  0
   -2.8018    1.8837   -6.8412 H   0  0  0  0  0  0  0  0  0  0  0  0
   -2.2642   -0.0450   -5.2687 H   0  0  0  0  0  0  0  0  0  0  0  0
   -0.1049   -0.8587   -4.6920 H   0  0  0  0  0  0  0  0  0  0  0  0
    0.5772   -2.7954   -6.0363 H   0  0  0  0  0  0  0  0  0  0  0  0
   -0.8918   -7.4811   -6.6957 H   0  0  0  0  0  0  0  0  0  0  0  0
   -1.4840   -7.1470   -5.0577 H   0  0  0  0  0  0  0  0  0  0  0  0
   -2.9102   -5.2899   -5.9650 H   0  0  0  0  0  0  0  0  0  0  0  0
   -2.2859   -5.6035   -7.5879 H   0  0  0  0  0  0  0  0  0  0  0  0
   -3.2937   -6.8099   -6.7756 H   0  0  0  0  0  0  0  0  0  0  0  0
   -2.4538   -3.4553   -2.2219 H   0  0  0  0  0  0  0  0  0  0  0  0
   -3.4504    2.0223    1.3142 H   0  0  0  0  0  0  0  0  0  0  0  0
   -3.4045    3.9967    2.7194 H   0  0  0  0  0  0  0  0  0  0  0  0
   -2.7642    7.1665    4.4865 H   0  0  0  0  0  0  0  0  0  0  0  0
   -3.6609    5.7951    3.8220 H   0  0  0  0  0  0  0  0  0  0  0  0
   -1.6511    4.3082    4.3776 H   0  0  0  0  0  0  0  0  0  0  0  0
   -2.3415    5.0668    5.8163 H   0  0  0  0  0  0  0  0  0  0  0  0
   -0.8635    5.7087    5.0949 H   0  0  0  0  0  0  0  0  0  0  0  0
   -0.7192    3.8872   -1.4100 H   0  0  0  0  0  0  0  0  0  0  0  0
   -1.5307    0.7663    1.7942 H   0  0  0  0  0  0  0  0  0  0  0  0
   -1.3429   -4.4098    4.7686 H   0  0  0  0  0  0  0  0  0  0  0  0
   -1.6824   -3.9763    2.2179 H   0  0  0  0  0  0  0  0  0  0  0  0
    0.0415   -2.3688    9.4943 H   0  0  0  0  0  0  0  0  0  0  0  0
    0.8334   -0.2015   10.1935 H   0  0  0  0  0  0  0  0  0  0  0  0
    1.5636    3.9996    7.8702 H   0  0  0  0  0  0  0  0  0  0  0  0
    1.2792    2.2733    9.7893 H   0  0  0  0  0  0  0  0  0  0  0  0
    1.2550    5.4639    3.1488 H   0  0  0  0  0  0  0  0  0  0  0  0
    1.4867    4.6195    0.9337 H   0  0  0  0  0  0  0  0  0  0  0  0
    1.7201    2.7680   -0.7612 H   0  0  0  0  0  0  0  0  0  0  0  0
    0.2576    1.8727   -2.0792 H   0  0  0  0  0  0  0  0  0  0  0  0
    0.1042    2.7995   -4.3499 H   0  0  0  0  0  0  0  0  0  0  0  0
    3.3211    1.2965   -7.6995 H   0  0  0  0  0  0  0  0  0  0  0  0
    2.6899    2.7293   -8.5331 H   0  0  0  0  0  0  0  0  0  0  0  0
    3.3764    4.1609   -6.5966 H   0  0  0  0  0  0  0  0  0  0  0  0
    4.7699    3.3111   -7.2803 H   0  0  0  0  0  0  0  0  0  0  0  0
    4.0387    2.7421   -5.7779 H   0  0  0  0  0  0  0  0  0  0  0  0
    3.3541   -0.7633   -3.4030 H   0  0  0  0  0  0  0  0  0  0  0  0
    3.7107   -0.2499    3.2923 H   0  0  0  0  0  0  0  0  0  0  0  0
    4.1134   -1.0125    5.5404 H   0  0  0  0  0  0  0  0  0  0  0  0
    5.1706   -2.2752    6.9539 H   0  0  0  0  0  0  0  0  0  0  0  0
    4.8501   -3.1065    8.4831 H   0  0  0  0  0  0  0  0  0  0  0  0
    3.4405   -0.5185    7.6399 H   0  0  0  0  0  0  0  0  0  0  0  0
    3.2423   -1.3704    9.1668 H   0  0  0  0  0  0  0  0  0  0  0  0
    4.7895   -0.6076    8.7795 H   0  0  0  0  0  0  0  0  0  0  0  0
    1.1187   -3.5917    2.6043 H   0  0  0  0  0  0  0  0  0  0  0  0
    2.3751   -4.1589    0.9763 H   0  0  0  0  0  0  0  0  0  0  0  0
    1.9330   -7.6590   -3.9463 H   0  0  0  0  0  0  0  0  0  0  0  0
    2.0146   -5.0699   -3.7291 H   0  0  0  0  0  0  0  0  0  0  0  0
    1.8870  -12.3400   -1.9816 H   0  0  0  0  0  0  0  0  0  0  0  0
    2.0208  -11.6502    1.0079 H   0  0  0  0  0  0  0  0  0  0  0  0
    1.9609  -13.3278    0.2637 H   0  0  0  0  0  0  0  0  0  0  0  0
  1  2  1  0  0  0  0
  2  3  1  0  0  0  0
  3  4  2  0  0  0  0
  4  5  1  0  0  0  0
  3  6  1  0  0  0  0
  6  7  3  0  0  0  0
  7  8  1  0  0  0  0
  8  9  2  0  0  0  0
  9 10  1  0  0  0  0
 10 11  2  0  0  0  0
 11 12  1  0  0  0  0
 12 13  2  0  0  0  0
 13 14  1  0  0  0  0
 14 15  2  0  0  0  0
 15 16  1  0  0  0  0
 16 17  2  0  0  0  0
 17 18  1  0  0  0  0
 18 19  1  0  0  0  0
 19 20  1  0  0  0  0
 17 21  1  0  0  0  0
 21 22  1  0  0  0  0
 21 23  2  0  0  0  0
 13 24  1  0  0  0  0
 24 25  2  0  0  0  0
 25 26  1  0  0  0  0
 26 27  1  0  0  0  0
 27 28  2  0  0  0  0
 28 29  1  0  0  0  0
 29 30  2  0  0  0  0
 30 31  1  0  0  0  0
 31 32  1  0  0  0  0
 32 33  1  0  0  0  0
 30 34  1  0  0  0  0
 34 35  2  0  0  0  0
 34 36  1  0  0  0  0
 26 37  2  0  0  0  0
 37 38  1  0  0  0  0
 25 39  1  0  0  0  0
 39 40  2  0  0  0  0
 40 41  1  0  0  0  0
 40 42  1  0  0  0  0
 42 43  1  0  0  0  0
 43 44  1  0  0  0  0
 44 45  2  0  0  0  0
 45 46  1  0  0  0  0
 44 47  1  0  0  0  0
 47 48  3  0  0  0  0
 48 49  1  0  0  0  0
 49 50  2  0  0  0  0
 50 51  1  0  0  0  0
 51 52  1  0  0  0  0
 52 53  1  0  0  0  0
 53 54  2  0  0  0  0
 54 55  1  0  0  0  0
 53 56  1  0  0  0  0
 56 57  3  0  0  0  0
 57 58  1  0  0  0  0
 58 59  2  0  0  0  0
 59 60  1  0  0  0  0
 60 61  2  0  0  0  0
 61 62  1  0  0  0  0
 62 63  2  0  0  0  0
 63 64  1  0  0  0  0
 64 65  2  0  0  0  0
 65 66  1  0  0  0  0
 66 67  2  0  0  0  0
 67 68  1  0  0  0  0
 68 69  1  0  0  0  0
 69 70  1  0  0  0  0
 67 71  1  0  0  0  0
 71 72  1  0  0  0  0
 71 73  2  0  0  0  0
 63 74  1  0  0  0  0
 74 75  2  0  0  0  0
 75 76  1  0  0  0  0
 76 77  1  0  0  0  0
 77 78  2  0  0  0  0
 78 79  1  0  0  0  0
 79 80  2  0  0  0  0
 80 81  1  0  0  0  0
 81 82  1  0  0  0  0
 82 83  1  0  0  0  0
 80 84  1  0  0  0  0
 84 85  2  0  0  0  0
 84 86  1  0  0  0  0
 76 87  2  0  0  0  0
 87 88  1  0  0  0  0
 75 89  1  0  0  0  0
 89 90  2  0  0  0  0
 90 91  1  0  0  0  0
 90 92  1  0  0  0  0
 92 93  1  0  0  0  0
 93 94  1  0  0  0  0
 94 95  2  0  0  0  0
 95 96  1  0  0  0  0
 94 97  1  0  0  0  0
 97 98  3  0  0  0  0
 98 99  1  0  0  0  0
 99100  2  0  0  0  0
  5  1  2  0  0  0  0
 38 10  1  0  0  0  0
 46 42  2  0  0  0  0
 55 51  2  0  0  0  0
 88 60  1  0  0  0  0
 96 92  2  0  0  0  0
 37 12  1  0  0  0  0
 87 62  1  0  0  0  0
 23 14  1  0  0  0  0
 41 24  1  0  0  0  0
 73 64  1  0  0  0  0
 91 74  1  0  0  0  0
 35 27  1  0  0  0  0
 85 77  1  0  0  0  0
  1101  1  0  0  0  0
  4102  1  0  0  0  0
  5103  1  0  0  0  0
  8104  1  0  0  0  0
  9105  1  0  0  0  0
 11106  1  0  0  0  0
 15107  1  0  0  0  0
 16108  1  0  0  0  0
 19109  1  0  0  0  0
 19110  1  0  0  0  0
 20111  1  0  0  0  0
 20112  1  0  0  0  0
 20113  1  0  0  0  0
 23114  1  0  0  0  0
 28115  1  0  0  0  0
 29116  1  0  0  0  0
 32117  1  0  0  0  0
 32118  1  0  0  0  0
 33119  1  0  0  0  0
 33120  1  0  0  0  0
 33121  1  0  0  0  0
 35122  1  0  0  0  0
 39123  1  0  0  0  0
 45124  1  0  0  0  0
 46125  1  0  0  0  0
 49126  1  0  0  0  0
 50127  1  0  0  0  0
 54128  1  0  0  0  0
 55129  1  0  0  0  0
 58130  1  0  0  0  0
 59131  1  0  0  0  0
 61132  1  0  0  0  0
 65133  1  0  0  0  0
 66134  1  0  0  0  0
 69135  1  0  0  0  0
 69136  1  0  0  0  0
 70137  1  0  0  0  0
 70138  1  0  0  0  0
 70139  1  0  0  0  0
 73140  1  0  0  0  0
 78141  1  0  0  0  0
 79142  1  0  0  0  0
 82143  1  0  0  0  0
 82144  1  0  0  0  0
 83145  1  0  0  0  0
 83146  1  0  0  0  0
 83147  1  0  0  0  0
 85148  1  0  0  0  0
 89149  1  0  0  0  0
 95150  1  0  0  0  0
 96151  1  0  0  0  0
 99152  1  0  0  0  0
100153  1  0  0  0  0
100154  1  0  0  0  0
M  END
