154

C         -3.17570        8.74930       -2.08110
S         -3.12570        8.41820       -3.76470
C         -3.20190        6.70290       -3.45370
C         -3.26990        6.44910       -2.10460
C         -3.25200        7.61890       -1.32750
C         -3.17440        5.76570       -4.47600
C         -3.12230        4.89070       -5.31750
C         -3.06140        3.88960       -6.28230
C         -2.83990        2.58240       -6.01640
C         -2.60480        2.00490       -4.73410
C         -2.29850        0.69390       -4.48850
C         -2.05070        0.40010       -3.12570
C         -1.70250       -0.83350       -2.54240
C         -1.34750       -1.99460       -3.36320
C         -0.48570       -1.83860       -4.45080
C         -0.09020       -2.92530       -5.19830
C         -0.51990       -4.21520       -4.88960
S          0.10700       -5.53290       -5.88990
C         -1.28640       -6.70970       -6.03390
C         -2.51950       -6.05960       -6.62790
C         -1.35300       -4.36110       -3.78580
F         -1.78180       -5.58290       -3.39590
C         -1.77990       -3.27750       -3.04510
C         -1.62520       -0.86110       -1.15640
C         -1.74300        0.29980       -0.35040
C         -2.02170        1.54400       -0.93840
C         -2.06050        2.77060       -0.13190
C         -2.81660        2.85000        1.03410
C         -2.79660        3.97930        1.82950
C         -2.00990        5.07330        1.49100
S         -1.87080        6.56690        2.41630
C         -2.66360        6.18830        4.01560
C         -1.82870        5.25880        4.87580
C         -1.28750        4.99690        0.30020
C         -1.30550        3.88140       -0.50500
F         -0.52700        6.04810       -0.07220
C         -2.20770        1.55020       -2.31250
S         -2.62580        2.95170       -3.25900
C         -1.52850        0.01970        1.02050
C         -1.33810       -1.30250        1.28630
S         -1.31970       -2.27180       -0.17170
C         -1.21490       -1.90290        2.57090
S         -0.80770       -0.92030        3.94530
C         -0.88560       -2.31590        4.99430
C         -1.24290       -3.44850        4.29820
C         -1.41490       -3.21620        2.93150
C         -0.55700       -2.16500        6.32850
C         -0.19590       -1.88680        7.45550
C          0.16160       -1.58200        8.76160
C          0.62240       -0.36710        9.14450
C          0.85220        0.76140        8.30660
S          0.76820        0.71170        6.56590
C          1.14240        2.41490        6.46560
C          1.32530        2.96140        7.71980
C          1.17370        2.03230        8.74590
C          1.21300        3.07320        5.24950
C          1.26720        3.63170        4.17020
C          1.32420        4.39210        3.00680
C          1.45770        3.91160        1.75070
C          1.58750        2.54680        1.36320
C          1.69640        2.09560        0.07640
C          1.81530        0.68930       -0.03860
C          1.87590       -0.09880       -1.20480
C          1.80270        0.47710       -2.55150
C          0.90340        1.49820       -2.85310
C          0.80150        2.00610       -4.12930
C          1.57650        1.50500       -5.17240
S          1.25140        2.14470       -6.78910
C          2.90630        2.29200       -7.55830
C          3.82810        3.18290       -6.75060
C          2.47930        0.49270       -4.86150
F          3.26620       -0.04910       -5.81800
C          2.61210       -0.00110       -3.57960
C          1.97230       -1.47020       -1.01260
C          2.10640       -2.08550        0.25980
C          2.10860       -1.29090        1.42160
C          2.36190       -1.83110        2.76290
C          3.21180       -1.14460        3.62970
C          3.45450       -1.58900        4.91300
C          2.86580       -2.75510        5.38560
S          3.06860       -3.42860        6.99840
C          4.42450       -2.44440        7.72890
C          3.94380       -1.15360        8.36500
C          2.04630       -3.45440        4.50010
C          1.79270       -3.01850        3.21910
F          1.47540       -4.60720        4.91060
C          1.89710        0.07100        1.23490
S          1.67290        1.23480        2.51900
C          2.20720       -3.49610        0.14780
C          2.08100       -3.95890       -1.12850
S          1.90280       -2.65970       -2.28750
C          2.06060       -5.30550       -1.58830
S          2.05510       -6.64040       -0.47280
C          1.98890       -7.78000       -1.79280
C          1.97380       -7.13490       -3.00840
C          2.01490       -5.74460       -2.89120
C          1.96590       -9.14790       -1.55470
C          1.95040      -10.33710       -1.32390
C          1.93310      -11.72000       -1.09400
C          1.97370      -12.26110        0.12200
H         -3.14330        9.76780       -1.74840
H         -3.33040        5.45160       -1.70750
H         -3.28300        7.62410       -0.25260
H         -3.19630        4.20860       -7.30770
H         -2.80180        1.88370       -6.84120
H         -2.26420       -0.04500       -5.26870
H         -0.10490       -0.85870       -4.69200
H          0.57720       -2.79540       -6.03630
H         -0.89180       -7.48110       -6.69570
H         -1.48400       -7.14700       -5.05770
H         -2.91020       -5.28990       -5.96500
H         -2.28590       -5.60350       -7.58790
H         -3.29370       -6.80990       -6.77560
H         -2.45380       -3.45530       -2.22190
H         -3.45040        2.02230        1.31420
H         -3.40450        3.99670        2.71940
H         -2.76420        7.16650        4.48650
H         -3.66090        5.79510        3.82200
H         -1.65110        4.30820        4.37760
H         -2.34150        5.06680        5.81630
H         -0.86350        5.70870        5.09490
H         -0.71920        3.88720       -1.41000
H         -1.53070        0.76630        1.79420
H         -1.34290       -4.40980        4.76860
H         -1.68240       -3.97630        2.21790
H          0.04150       -2.36880        9.49430
H          0.83340       -0.20150       10.19350
H          1.56360        3.99960        7.87020
H          1.27920        2.27330        9.78930
H          1.25500        5.46390        3.14880
H          1.48670        4.61950        0.93370
H          1.72010        2.76800       -0.76120
H          0.25760        1.87270       -2.07920
H          0.10420        2.79950       -4.34990
H          3.32110        1.29650       -7.69950
H          2.68990        2.72930       -8.53310
H          3.37640        4.16090       -6.59660
H          4.76990        3.31110       -7.28030
H          4.03870        2.74210       -5.77790
H          3.35410       -0.76330       -3.40300
H          3.71070       -0.24990        3.29230
H          4.11340       -1.01250        5.54040
H          5.17060       -2.27520        6.95390
H          4.85010       -3.10650        8.48310
H          3.44050       -0.51850        7.63990
H          3.24230       -1.37040        9.16680
H          4.78950       -0.60760        8.77950
H          1.11870       -3.59170        2.60430
H          2.37510       -4.15890        0.97630
H          1.93300       -7.65900       -3.94630
H          2.01460       -5.06990       -3.72910
H          1.88700      -12.34000       -1.98160
H          2.02080      -11.65020        1.00790
H          1.96090      -13.32780        0.26370
