
  xtb     03012212003D
 energy: -467.087650711909 gnorm: 0.000153981179 xtb: 6.4.1 (unknown)
235262  0     0  0            999 V2000
    0.0097   -5.6409   12.2504 C   0  0  0  0  0  0  0  0  0  0  0  0
   -0.3336   -4.3371   12.2825 C   0  0  0  0  0  0  0  0  0  0  0  0
   -1.1031   -3.9401   11.1504 C   0  0  0  0  0  0  0  0  0  0  0  0
   -1.5847   -2.6606   10.8306 C   0  0  0  0  0  0  0  0  0  0  0  0
   -1.4246   -1.5432   11.7464 C   0  0  0  0  0  0  0  0  0  0  0  0
   -0.7058   -0.0454   11.2353 S   0  0  0  0  0  0  0  0  0  0  0  0
   -0.8868    0.6658   12.8023 C   0  0  0  0  0  0  0  0  0  0  0  0
   -0.3809    2.0363   13.0894 C   0  0  0  0  0  0  0  0  0  0  0  0
    1.1111    2.0086   13.4299 C   0  0  0  0  0  0  0  0  0  0  0  0
   -1.4695   -0.2184   13.6604 C   0  0  0  0  0  0  0  0  0  0  0  0
   -1.8140    0.1284   15.3055 Cl  0  0  0  0  0  0  0  0  0  0  0  0
   -1.7799   -1.4705   13.0648 C   0  0  0  0  0  0  0  0  0  0  0  0
   -2.5908   -2.7229   13.9136 Cl  0  0  0  0  0  0  0  0  0  0  0  0
   -2.2094   -2.5118    9.5994 C   0  0  0  0  0  0  0  0  0  0  0  0
   -2.4047   -3.5876    8.6999 C   0  0  0  0  0  0  0  0  0  0  0  0
   -1.9602   -4.8767    9.0372 C   0  0  0  0  0  0  0  0  0  0  0  0
   -2.1451   -6.0008    8.1343 C   0  0  0  0  0  0  0  0  0  0  0  0
   -1.5914   -5.9330    6.4865 S   0  0  0  0  0  0  0  0  0  0  0  0
   -2.1259   -7.5461    6.1566 C   0  0  0  0  0  0  0  0  0  0  0  0
   -1.9851   -8.1362    4.7973 C   0  0  0  0  0  0  0  0  0  0  0  0
   -3.0257   -7.5529    3.8388 C   0  0  0  0  0  0  0  0  0  0  0  0
   -2.7048   -8.0876    7.2645 C   0  0  0  0  0  0  0  0  0  0  0  0
   -2.7109   -7.2187    8.3897 C   0  0  0  0  0  0  0  0  0  0  0  0
   -3.4421   -7.6492    9.8780 Cl  0  0  0  0  0  0  0  0  0  0  0  0
   -3.3679   -9.6690    7.3250 Cl  0  0  0  0  0  0  0  0  0  0  0  0
   -1.3107   -5.0194   10.2579 C   0  0  0  0  0  0  0  0  0  0  0  0
   -0.5716   -6.4776   10.8543 S   0  0  0  0  0  0  0  0  0  0  0  0
   -3.0837   -3.1762    7.5268 C   0  0  0  0  0  0  0  0  0  0  0  0
   -3.3878   -1.8478    7.5110 C   0  0  0  0  0  0  0  0  0  0  0  0
   -2.8705   -1.0283    8.9705 S   0  0  0  0  0  0  0  0  0  0  0  0
   -4.0064   -1.1207    6.4525 C   0  0  0  0  0  0  0  0  0  0  0  0
   -4.2616    0.2167    6.3881 C   0  0  0  0  0  0  0  0  0  0  0  0
   -4.8155    0.6297    5.1508 C   0  0  0  0  0  0  0  0  0  0  0  0
   -5.1455    1.9364    4.7411 C   0  0  0  0  0  0  0  0  0  0  0  0
   -5.0818    3.0472    5.6731 C   0  0  0  0  0  0  0  0  0  0  0  0
   -4.2457    4.5213    5.2842 S   0  0  0  0  0  0  0  0  0  0  0  0
   -4.6295    5.2337    6.8125 C   0  0  0  0  0  0  0  0  0  0  0  0
   -4.1264    6.5846    7.1842 C   0  0  0  0  0  0  0  0  0  0  0  0
   -2.7528    6.4905    7.8533 C   0  0  0  0  0  0  0  0  0  0  0  0
   -5.3617    4.3682    7.5700 C   0  0  0  0  0  0  0  0  0  0  0  0
   -5.9302    4.7257    9.1491 Cl  0  0  0  0  0  0  0  0  0  0  0  0
   -5.6243    3.1297    6.9273 C   0  0  0  0  0  0  0  0  0  0  0  0
   -6.6007    1.9118    7.6414 Cl  0  0  0  0  0  0  0  0  0  0  0  0
   -5.4972    2.1056    3.4074 C   0  0  0  0  0  0  0  0  0  0  0  0
   -5.6174    1.0156    2.5133 C   0  0  0  0  0  0  0  0  0  0  0  0
   -5.3781   -0.3016    2.9430 C   0  0  0  0  0  0  0  0  0  0  0  0
   -5.5225   -1.4069    2.0110 C   0  0  0  0  0  0  0  0  0  0  0  0
   -4.2299   -2.5301    1.7131 S   0  0  0  0  0  0  0  0  0  0  0  0
   -5.1375   -3.3764    0.5053 C   0  0  0  0  0  0  0  0  0  0  0  0
   -4.5585   -4.5245   -0.2472 C   0  0  0  0  0  0  0  0  0  0  0  0
   -3.6253   -5.3722    0.6097 C   0  0  0  0  0  0  0  0  0  0  0  0
   -6.3719   -2.8146    0.3627 C   0  0  0  0  0  0  0  0  0  0  0  0
   -6.5906   -1.6937    1.2061 C   0  0  0  0  0  0  0  0  0  0  0  0
   -8.0819   -0.8432    1.2445 Cl  0  0  0  0  0  0  0  0  0  0  0  0
   -7.5717   -3.3925   -0.7187 Cl  0  0  0  0  0  0  0  0  0  0  0  0
   -4.9471   -0.4575    4.2504 C   0  0  0  0  0  0  0  0  0  0  0  0
   -4.4607   -1.9585    4.9816 S   0  0  0  0  0  0  0  0  0  0  0  0
   -5.8654    1.4402    1.1913 C   0  0  0  0  0  0  0  0  0  0  0  0
   -5.9421    2.7970    1.0538 C   0  0  0  0  0  0  0  0  0  0  0  0
   -5.7690    3.6222    2.5867 S   0  0  0  0  0  0  0  0  0  0  0  0
   -5.9238    3.4436   -0.2208 C   0  0  0  0  0  0  0  0  0  0  0  0
   -6.1515    2.7980   -1.4028 C   0  0  0  0  0  0  0  0  0  0  0  0
   -5.6240    3.4776   -2.5214 C   0  0  0  0  0  0  0  0  0  0  0  0
   -5.4043    2.9338   -3.7971 C   0  0  0  0  0  0  0  0  0  0  0  0
   -5.8277    1.5709   -4.1018 C   0  0  0  0  0  0  0  0  0  0  0  0
   -6.9543    1.2064   -5.3706 S   0  0  0  0  0  0  0  0  0  0  0  0
   -6.9129   -0.4894   -5.0240 C   0  0  0  0  0  0  0  0  0  0  0  0
   -7.7763   -1.4548   -5.7585 C   0  0  0  0  0  0  0  0  0  0  0  0
   -9.1355   -1.6010   -5.0693 C   0  0  0  0  0  0  0  0  0  0  0  0
   -6.0655   -0.7421   -3.9866 C   0  0  0  0  0  0  0  0  0  0  0  0
   -5.7586   -2.3048   -3.3527 Cl  0  0  0  0  0  0  0  0  0  0  0  0
   -5.4449    0.4236   -3.4643 C   0  0  0  0  0  0  0  0  0  0  0  0
   -4.2854    0.3584   -2.1953 Cl  0  0  0  0  0  0  0  0  0  0  0  0
   -4.6012    3.6659   -4.6508 C   0  0  0  0  0  0  0  0  0  0  0  0
   -4.0546    4.9329   -4.3199 C   0  0  0  0  0  0  0  0  0  0  0  0
   -4.3672    5.5248   -3.0778 C   0  0  0  0  0  0  0  0  0  0  0  0
   -3.8954    6.8434   -2.6950 C   0  0  0  0  0  0  0  0  0  0  0  0
   -2.2444    7.3599   -2.8900 S   0  0  0  0  0  0  0  0  0  0  0  0
   -2.5608    8.9191   -2.2132 C   0  0  0  0  0  0  0  0  0  0  0  0
   -1.4742    9.9227   -2.0521 C   0  0  0  0  0  0  0  0  0  0  0  0
   -0.6852    9.6759   -0.7640 C   0  0  0  0  0  0  0  0  0  0  0  0
   -3.8705    9.0174   -1.8494 C   0  0  0  0  0  0  0  0  0  0  0  0
   -4.6288    7.8473   -2.1195 C   0  0  0  0  0  0  0  0  0  0  0  0
   -6.3149    7.7679   -1.8286 Cl  0  0  0  0  0  0  0  0  0  0  0  0
   -4.5642   10.4184   -1.1432 Cl  0  0  0  0  0  0  0  0  0  0  0  0
   -5.0940    4.7456   -2.1810 C   0  0  0  0  0  0  0  0  0  0  0  0
   -5.2457    5.0394   -0.4675 S   0  0  0  0  0  0  0  0  0  0  0  0
   -3.0611    5.3319   -5.2488 C   0  0  0  0  0  0  0  0  0  0  0  0
   -2.7894    4.3853   -6.2001 C   0  0  0  0  0  0  0  0  0  0  0  0
   -3.9217    3.0398   -6.1241 S   0  0  0  0  0  0  0  0  0  0  0  0
   -1.5799    4.1816   -6.9237 C   0  0  0  0  0  0  0  0  0  0  0  0
   -1.1620    2.5274   -7.2155 S   0  0  0  0  0  0  0  0  0  0  0  0
    0.5205    2.8860   -7.4437 C   0  0  0  0  0  0  0  0  0  0  0  0
    0.7233    4.2686   -7.4548 C   0  0  0  0  0  0  0  0  0  0  0  0
   -0.4775    5.0109   -7.1480 C   0  0  0  0  0  0  0  0  0  0  0  0
   -0.4437    6.4218   -7.0762 C   0  0  0  0  0  0  0  0  0  0  0  0
    0.7547    7.0350   -7.2845 C   0  0  0  0  0  0  0  0  0  0  0  0
    1.1060    8.4700   -7.2608 C   0  0  0  0  0  0  0  0  0  0  0  0
    0.4088    9.4268   -7.0270 O   0  0  0  0  0  0  0  0  0  0  0  0
    2.4574    8.5264   -7.5673 N   0  0  0  0  0  0  0  0  0  0  0  0
    3.2085    9.7618   -7.6183 C   0  0  0  0  0  0  0  0  0  0  0  0
    3.7733   10.1205   -6.2481 C   0  0  0  0  0  0  0  0  0  0  0  0
    3.0323    7.2787   -7.7726 C   0  0  0  0  0  0  0  0  0  0  0  0
    4.1900    7.0910   -8.0524 O   0  0  0  0  0  0  0  0  0  0  0  0
    1.9372    6.3039   -7.5854 C   0  0  0  0  0  0  0  0  0  0  0  0
    1.9445    4.9448   -7.6775 C   0  0  0  0  0  0  0  0  0  0  0  0
    1.4134    1.7885   -7.3050 C   0  0  0  0  0  0  0  0  0  0  0  0
    0.9869    0.5549   -6.8881 C   0  0  0  0  0  0  0  0  0  0  0  0
    2.0210   -0.3249   -6.5230 C   0  0  0  0  0  0  0  0  0  0  0  0
    1.8766   -1.5577   -5.8609 C   0  0  0  0  0  0  0  0  0  0  0  0
    0.5466   -2.0623   -5.5570 C   0  0  0  0  0  0  0  0  0  0  0  0
   -0.6472   -2.2603   -6.8065 S   0  0  0  0  0  0  0  0  0  0  0  0
   -1.8920   -2.6549   -5.6687 C   0  0  0  0  0  0  0  0  0  0  0  0
   -3.2961   -2.8513   -6.1206 C   0  0  0  0  0  0  0  0  0  0  0  0
   -3.8657   -1.5468   -6.6833 C   0  0  0  0  0  0  0  0  0  0  0  0
   -1.3872   -2.6555   -4.4038 C   0  0  0  0  0  0  0  0  0  0  0  0
   -2.3127   -2.9834   -3.0018 Cl  0  0  0  0  0  0  0  0  0  0  0  0
   -0.0054   -2.3260   -4.3344 C   0  0  0  0  0  0  0  0  0  0  0  0
    0.8250   -2.1777   -2.8413 Cl  0  0  0  0  0  0  0  0  0  0  0  0
    3.0408   -2.1738   -5.4371 C   0  0  0  0  0  0  0  0  0  0  0  0
    4.3318   -1.6231   -5.6518 C   0  0  0  0  0  0  0  0  0  0  0  0
    4.4668   -0.3718   -6.2855 C   0  0  0  0  0  0  0  0  0  0  0  0
    5.7606    0.2744   -6.4265 C   0  0  0  0  0  0  0  0  0  0  0  0
    6.2880    0.9041   -7.9589 S   0  0  0  0  0  0  0  0  0  0  0  0
    7.7738    1.4901   -7.2958 C   0  0  0  0  0  0  0  0  0  0  0  0
    8.7956    2.1500   -8.1535 C   0  0  0  0  0  0  0  0  0  0  0  0
    9.7073    1.1147   -8.8166 C   0  0  0  0  0  0  0  0  0  0  0  0
    7.8445    1.2028   -5.9650 C   0  0  0  0  0  0  0  0  0  0  0  0
    6.7025    0.5215   -5.4654 C   0  0  0  0  0  0  0  0  0  0  0  0
    6.5116    0.1486   -3.8000 Cl  0  0  0  0  0  0  0  0  0  0  0  0
    9.1729    1.6255   -4.9643 Cl  0  0  0  0  0  0  0  0  0  0  0  0
    3.2998    0.2502   -6.7106 C   0  0  0  0  0  0  0  0  0  0  0  0
    3.1662    1.8701   -7.3565 S   0  0  0  0  0  0  0  0  0  0  0  0
    5.3454   -2.4523   -5.1096 C   0  0  0  0  0  0  0  0  0  0  0  0
    4.8608   -3.5536   -4.4665 C   0  0  0  0  0  0  0  0  0  0  0  0
    3.1168   -3.6739   -4.5695 S   0  0  0  0  0  0  0  0  0  0  0  0
    5.5538   -4.5083   -3.6669 C   0  0  0  0  0  0  0  0  0  0  0  0
    4.9737   -5.4812   -2.9080 C   0  0  0  0  0  0  0  0  0  0  0  0
    5.8929   -6.2066   -2.1141 C   0  0  0  0  0  0  0  0  0  0  0  0
    5.6143   -7.2234   -1.1844 C   0  0  0  0  0  0  0  0  0  0  0  0
    4.2418   -7.6079   -0.8963 C   0  0  0  0  0  0  0  0  0  0  0  0
    3.0618   -6.4040   -0.4584 S   0  0  0  0  0  0  0  0  0  0  0  0
    1.8034   -7.5786   -0.2919 C   0  0  0  0  0  0  0  0  0  0  0  0
    0.4280   -7.1826    0.1196 C   0  0  0  0  0  0  0  0  0  0  0  0
    0.3024   -7.1130    1.6432 C   0  0  0  0  0  0  0  0  0  0  0  0
    2.2872   -8.8264   -0.5492 C   0  0  0  0  0  0  0  0  0  0  0  0
    1.3339  -10.2517   -0.4849 Cl  0  0  0  0  0  0  0  0  0  0  0  0
    3.6658   -8.8479   -0.8954 C   0  0  0  0  0  0  0  0  0  0  0  0
    4.4706  -10.2886   -1.3561 Cl  0  0  0  0  0  0  0  0  0  0  0  0
    6.7033   -7.7934   -0.5356 C   0  0  0  0  0  0  0  0  0  0  0  0
    8.0378   -7.3748   -0.7634 C   0  0  0  0  0  0  0  0  0  0  0  0
    8.3067   -6.3219   -1.6520 C   0  0  0  0  0  0  0  0  0  0  0  0
    9.6497   -5.7898   -1.8161 C   0  0  0  0  0  0  0  0  0  0  0  0
   10.3734   -5.6011   -3.3844 S   0  0  0  0  0  0  0  0  0  0  0  0
   11.8188   -4.9198   -2.7211 C   0  0  0  0  0  0  0  0  0  0  0  0
   12.9206   -4.4429   -3.6012 C   0  0  0  0  0  0  0  0  0  0  0  0
   12.6479   -3.0156   -4.0829 C   0  0  0  0  0  0  0  0  0  0  0  0
   11.7261   -4.8392   -1.3635 C   0  0  0  0  0  0  0  0  0  0  0  0
   10.4998   -5.3356   -0.8459 C   0  0  0  0  0  0  0  0  0  0  0  0
   10.1132   -5.2790    0.8256 Cl  0  0  0  0  0  0  0  0  0  0  0  0
   12.9613   -4.2048   -0.3551 Cl  0  0  0  0  0  0  0  0  0  0  0  0
    7.2238   -5.7754   -2.3279 C   0  0  0  0  0  0  0  0  0  0  0  0
    7.2919   -4.4553   -3.4644 S   0  0  0  0  0  0  0  0  0  0  0  0
    8.9640   -8.1303    0.0130 C   0  0  0  0  0  0  0  0  0  0  0  0
    8.3613   -9.0322    0.8140 C   0  0  0  0  0  0  0  0  0  0  0  0
    6.6386   -9.0427    0.6737 S   0  0  0  0  0  0  0  0  0  0  0  0
    0.5833   -6.1883   12.9726 H   0  0  0  0  0  0  0  0  0  0  0  0
   -0.0428   -3.6641   13.0675 H   0  0  0  0  0  0  0  0  0  0  0  0
   -0.9408    2.4470   13.9314 H   0  0  0  0  0  0  0  0  0  0  0  0
   -0.5423    2.6715   12.2168 H   0  0  0  0  0  0  0  0  0  0  0  0
    1.4651    3.0145   13.6386 H   0  0  0  0  0  0  0  0  0  0  0  0
    1.6802    1.6030   12.5968 H   0  0  0  0  0  0  0  0  0  0  0  0
    1.2862    1.3890   14.3057 H   0  0  0  0  0  0  0  0  0  0  0  0
   -0.9844   -7.9299    4.4130 H   0  0  0  0  0  0  0  0  0  0  0  0
   -2.1163   -9.2167    4.8719 H   0  0  0  0  0  0  0  0  0  0  0  0
   -2.8977   -6.4758    3.7559 H   0  0  0  0  0  0  0  0  0  0  0  0
   -4.0293   -7.7565    4.2040 H   0  0  0  0  0  0  0  0  0  0  0  0
   -2.9173   -7.9987    2.8537 H   0  0  0  0  0  0  0  0  0  0  0  0
   -3.3359   -3.8353    6.7160 H   0  0  0  0  0  0  0  0  0  0  0  0
   -4.0220    0.8876    7.1929 H   0  0  0  0  0  0  0  0  0  0  0  0
   -4.0539    7.2022    6.2878 H   0  0  0  0  0  0  0  0  0  0  0  0
   -4.8361    7.0465    7.8732 H   0  0  0  0  0  0  0  0  0  0  0  0
   -2.8144    5.8873    8.7555 H   0  0  0  0  0  0  0  0  0  0  0  0
   -2.0344    6.0333    7.1771 H   0  0  0  0  0  0  0  0  0  0  0  0
   -2.3994    7.4826    8.1204 H   0  0  0  0  0  0  0  0  0  0  0  0
   -4.0048   -4.1386   -1.1090 H   0  0  0  0  0  0  0  0  0  0  0  0
   -5.3805   -5.1327   -0.6317 H   0  0  0  0  0  0  0  0  0  0  0  0
   -4.1586   -5.7736    1.4678 H   0  0  0  0  0  0  0  0  0  0  0  0
   -2.7933   -4.7703    0.9684 H   0  0  0  0  0  0  0  0  0  0  0  0
   -3.2303   -6.1987    0.0246 H   0  0  0  0  0  0  0  0  0  0  0  0
   -5.8962    0.7636    0.3590 H   0  0  0  0  0  0  0  0  0  0  0  0
   -6.6252    1.8373   -1.4686 H   0  0  0  0  0  0  0  0  0  0  0  0
   -7.9221   -1.1063   -6.7822 H   0  0  0  0  0  0  0  0  0  0  0  0
   -7.2770   -2.4257   -5.7828 H   0  0  0  0  0  0  0  0  0  0  0  0
   -9.6481   -0.6427   -5.0371 H   0  0  0  0  0  0  0  0  0  0  0  0
   -9.0049   -1.9604   -4.0518 H   0  0  0  0  0  0  0  0  0  0  0  0
   -9.7548   -2.3102   -5.6117 H   0  0  0  0  0  0  0  0  0  0  0  0
   -1.9212   10.9180   -2.0226 H   0  0  0  0  0  0  0  0  0  0  0  0
   -0.8005    9.8673   -2.9093 H   0  0  0  0  0  0  0  0  0  0  0  0
   -0.2295    8.6886   -0.7829 H   0  0  0  0  0  0  0  0  0  0  0  0
   -1.3433    9.7384    0.0990 H   0  0  0  0  0  0  0  0  0  0  0  0
    0.0990   10.4206   -0.6592 H   0  0  0  0  0  0  0  0  0  0  0  0
   -2.4744    6.2224   -5.1318 H   0  0  0  0  0  0  0  0  0  0  0  0
   -1.3388    6.9913   -6.8869 H   0  0  0  0  0  0  0  0  0  0  0  0
    4.0179    9.6214   -8.3387 H   0  0  0  0  0  0  0  0  0  0  0  0
    2.5295   10.5440   -7.9662 H   0  0  0  0  0  0  0  0  0  0  0  0
    4.3318   11.0500   -6.3119 H   0  0  0  0  0  0  0  0  0  0  0  0
    4.4390    9.3343   -5.8995 H   0  0  0  0  0  0  0  0  0  0  0  0
    2.9652   10.2453   -5.5309 H   0  0  0  0  0  0  0  0  0  0  0  0
    2.8431    4.4017   -7.9236 H   0  0  0  0  0  0  0  0  0  0  0  0
   -0.0541    0.3167   -6.7713 H   0  0  0  0  0  0  0  0  0  0  0  0
   -3.8939   -3.1823   -5.2705 H   0  0  0  0  0  0  0  0  0  0  0  0
   -3.3311   -3.6232   -6.8927 H   0  0  0  0  0  0  0  0  0  0  0  0
   -3.2853   -1.2212   -7.5433 H   0  0  0  0  0  0  0  0  0  0  0  0
   -4.8971   -1.6900   -6.9921 H   0  0  0  0  0  0  0  0  0  0  0  0
   -3.8358   -0.7627   -5.9303 H   0  0  0  0  0  0  0  0  0  0  0  0
    8.2951    2.7406   -8.9223 H   0  0  0  0  0  0  0  0  0  0  0  0
    9.3939    2.8189   -7.5321 H   0  0  0  0  0  0  0  0  0  0  0  0
   10.2241    0.5285   -8.0609 H   0  0  0  0  0  0  0  0  0  0  0  0
    9.1234    0.4421   -9.4403 H   0  0  0  0  0  0  0  0  0  0  0  0
   10.4469    1.6131   -9.4372 H   0  0  0  0  0  0  0  0  0  0  0  0
    6.3966   -2.2389   -5.1725 H   0  0  0  0  0  0  0  0  0  0  0  0
    3.9138   -5.6594   -2.9134 H   0  0  0  0  0  0  0  0  0  0  0  0
    0.1912   -6.2069   -0.3082 H   0  0  0  0  0  0  0  0  0  0  0  0
   -0.2774   -7.9184   -0.2715 H   0  0  0  0  0  0  0  0  0  0  0  0
   -0.7028   -6.8063    1.9189 H   0  0  0  0  0  0  0  0  0  0  0  0
    1.0099   -6.3933    2.0478 H   0  0  0  0  0  0  0  0  0  0  0  0
    0.5076   -8.0870    2.0805 H   0  0  0  0  0  0  0  0  0  0  0  0
   13.0108   -5.1065   -4.4627 H   0  0  0  0  0  0  0  0  0  0  0  0
   13.8557   -4.4675   -3.0389 H   0  0  0  0  0  0  0  0  0  0  0  0
   13.4566   -2.6772   -4.7249 H   0  0  0  0  0  0  0  0  0  0  0  0
   12.5701   -2.3403   -3.2348 H   0  0  0  0  0  0  0  0  0  0  0  0
   11.7163   -2.9785   -4.6427 H   0  0  0  0  0  0  0  0  0  0  0  0
   10.0288   -8.0011   -0.0449 H   0  0  0  0  0  0  0  0  0  0  0  0
    8.8230   -9.7203    1.4950 H   0  0  0  0  0  0  0  0  0  0  0  0
  1  2  2  0  0  0  0
  2  3  1  0  0  0  0
  3  4  2  0  0  0  0
  4  5  1  0  0  0  0
  5  6  1  0  0  0  0
  6  7  1  0  0  0  0
  7  8  1  0  0  0  0
  8  9  1  0  0  0  0
  7 10  2  0  0  0  0
 10 11  1  0  0  0  0
 10 12  1  0  0  0  0
 12 13  1  0  0  0  0
  4 14  1  0  0  0  0
 14 15  2  0  0  0  0
 15 16  1  0  0  0  0
 16 17  1  0  0  0  0
 17 18  1  0  0  0  0
 18 19  1  0  0  0  0
 19 20  1  0  0  0  0
 20 21  1  0  0  0  0
 19 22  2  0  0  0  0
 22 23  1  0  0  0  0
 23 24  1  0  0  0  0
 22 25  1  0  0  0  0
 16 26  2  0  0  0  0
 26 27  1  0  0  0  0
 15 28  1  0  0  0  0
 28 29  2  0  0  0  0
 29 30  1  0  0  0  0
 29 31  1  0  0  0  0
 31 32  2  0  0  0  0
 32 33  1  0  0  0  0
 33 34  2  0  0  0  0
 34 35  1  0  0  0  0
 35 36  1  0  0  0  0
 36 37  1  0  0  0  0
 37 38  1  0  0  0  0
 38 39  1  0  0  0  0
 37 40  2  0  0  0  0
 40 41  1  0  0  0  0
 40 42  1  0  0  0  0
 42 43  1  0  0  0  0
 34 44  1  0  0  0  0
 44 45  2  0  0  0  0
 45 46  1  0  0  0  0
 46 47  1  0  0  0  0
 47 48  1  0  0  0  0
 48 49  1  0  0  0  0
 49 50  1  0  0  0  0
 50 51  1  0  0  0  0
 49 52  2  0  0  0  0
 52 53  1  0  0  0  0
 53 54  1  0  0  0  0
 52 55  1  0  0  0  0
 46 56  2  0  0  0  0
 56 57  1  0  0  0  0
 45 58  1  0  0  0  0
 58 59  2  0  0  0  0
 59 60  1  0  0  0  0
 59 61  1  0  0  0  0
 61 62  2  0  0  0  0
 62 63  1  0  0  0  0
 63 64  2  0  0  0  0
 64 65  1  0  0  0  0
 65 66  1  0  0  0  0
 66 67  1  0  0  0  0
 67 68  1  0  0  0  0
 68 69  1  0  0  0  0
 67 70  2  0  0  0  0
 70 71  1  0  0  0  0
 70 72  1  0  0  0  0
 72 73  1  0  0  0  0
 64 74  1  0  0  0  0
 74 75  2  0  0  0  0
 75 76  1  0  0  0  0
 76 77  1  0  0  0  0
 77 78  1  0  0  0  0
 78 79  1  0  0  0  0
 79 80  1  0  0  0  0
 80 81  1  0  0  0  0
 79 82  2  0  0  0  0
 82 83  1  0  0  0  0
 83 84  1  0  0  0  0
 82 85  1  0  0  0  0
 76 86  2  0  0  0  0
 86 87  1  0  0  0  0
 75 88  1  0  0  0  0
 88 89  2  0  0  0  0
 89 90  1  0  0  0  0
 89 91  1  0  0  0  0
 91 92  1  0  0  0  0
 92 93  1  0  0  0  0
 93 94  2  0  0  0  0
 94 95  1  0  0  0  0
 95 96  1  0  0  0  0
 96 97  2  0  0  0  0
 97 98  1  0  0  0  0
 98 99  2  0  0  0  0
 98100  1  0  0  0  0
100101  1  0  0  0  0
101102  1  0  0  0  0
100103  1  0  0  0  0
103104  2  0  0  0  0
103105  1  0  0  0  0
105106  2  0  0  0  0
 93107  1  0  0  0  0
107108  2  0  0  0  0
108109  1  0  0  0  0
109110  2  0  0  0  0
110111  1  0  0  0  0
111112  1  0  0  0  0
112113  1  0  0  0  0
113114  1  0  0  0  0
114115  1  0  0  0  0
113116  2  0  0  0  0
116117  1  0  0  0  0
116118  1  0  0  0  0
118119  1  0  0  0  0
110120  1  0  0  0  0
120121  2  0  0  0  0
121122  1  0  0  0  0
122123  1  0  0  0  0
123124  1  0  0  0  0
124125  1  0  0  0  0
125126  1  0  0  0  0
126127  1  0  0  0  0
125128  2  0  0  0  0
128129  1  0  0  0  0
129130  1  0  0  0  0
128131  1  0  0  0  0
122132  2  0  0  0  0
132133  1  0  0  0  0
121134  1  0  0  0  0
134135  2  0  0  0  0
135136  1  0  0  0  0
135137  1  0  0  0  0
137138  2  0  0  0  0
138139  1  0  0  0  0
139140  2  0  0  0  0
140141  1  0  0  0  0
141142  1  0  0  0  0
142143  1  0  0  0  0
143144  1  0  0  0  0
144145  1  0  0  0  0
143146  2  0  0  0  0
146147  1  0  0  0  0
146148  1  0  0  0  0
148149  1  0  0  0  0
140150  1  0  0  0  0
150151  2  0  0  0  0
151152  1  0  0  0  0
152153  1  0  0  0  0
153154  1  0  0  0  0
154155  1  0  0  0  0
155156  1  0  0  0  0
156157  1  0  0  0  0
155158  2  0  0  0  0
158159  1  0  0  0  0
159160  1  0  0  0  0
158161  1  0  0  0  0
152162  2  0  0  0  0
162163  1  0  0  0  0
151164  1  0  0  0  0
164165  2  0  0  0  0
165166  1  0  0  0  0
 27  1  1  0  0  0  0
 57 31  1  0  0  0  0
 87 61  1  0  0  0  0
 95 91  2  0  0  0  0
105 97  1  0  0  0  0
133107  1  0  0  0  0
163137  1  0  0  0  0
 26  3  1  0  0  0  0
 56 33  1  0  0  0  0
 86 63  1  0  0  0  0
106 94  1  0  0  0  0
132109  1  0  0  0  0
162139  1  0  0  0  0
 12  5  2  0  0  0  0
 30 14  1  0  0  0  0
 42 35  2  0  0  0  0
 60 44  1  0  0  0  0
 72 65  2  0  0  0  0
 90 74  1  0  0  0  0
118111  2  0  0  0  0
136120  1  0  0  0  0
148141  2  0  0  0  0
166150  1  0  0  0  0
 23 17  2  0  0  0  0
 53 47  2  0  0  0  0
 83 77  2  0  0  0  0
129123  2  0  0  0  0
159153  2  0  0  0  0
  1167  1  0  0  0  0
  2168  1  0  0  0  0
  8169  1  0  0  0  0
  8170  1  0  0  0  0
  9171  1  0  0  0  0
  9172  1  0  0  0  0
  9173  1  0  0  0  0
 20174  1  0  0  0  0
 20175  1  0  0  0  0
 21176  1  0  0  0  0
 21177  1  0  0  0  0
 21178  1  0  0  0  0
 28179  1  0  0  0  0
 32180  1  0  0  0  0
 38181  1  0  0  0  0
 38182  1  0  0  0  0
 39183  1  0  0  0  0
 39184  1  0  0  0  0
 39185  1  0  0  0  0
 50186  1  0  0  0  0
 50187  1  0  0  0  0
 51188  1  0  0  0  0
 51189  1  0  0  0  0
 51190  1  0  0  0  0
 58191  1  0  0  0  0
 62192  1  0  0  0  0
 68193  1  0  0  0  0
 68194  1  0  0  0  0
 69195  1  0  0  0  0
 69196  1  0  0  0  0
 69197  1  0  0  0  0
 80198  1  0  0  0  0
 80199  1  0  0  0  0
 81200  1  0  0  0  0
 81201  1  0  0  0  0
 81202  1  0  0  0  0
 88203  1  0  0  0  0
 96204  1  0  0  0  0
101205  1  0  0  0  0
101206  1  0  0  0  0
102207  1  0  0  0  0
102208  1  0  0  0  0
102209  1  0  0  0  0
106210  1  0  0  0  0
108211  1  0  0  0  0
114212  1  0  0  0  0
114213  1  0  0  0  0
115214  1  0  0  0  0
115215  1  0  0  0  0
115216  1  0  0  0  0
126217  1  0  0  0  0
126218  1  0  0  0  0
127219  1  0  0  0  0
127220  1  0  0  0  0
127221  1  0  0  0  0
134222  1  0  0  0  0
138223  1  0  0  0  0
144224  1  0  0  0  0
144225  1  0  0  0  0
145226  1  0  0  0  0
145227  1  0  0  0  0
145228  1  0  0  0  0
156229  1  0  0  0  0
156230  1  0  0  0  0
157231  1  0  0  0  0
157232  1  0  0  0  0
157233  1  0  0  0  0
164234  1  0  0  0  0
165235  1  0  0  0  0
M  END
