235

C          0.00970       -5.64090       12.25040
C         -0.33360       -4.33710       12.28250
C         -1.10310       -3.94010       11.15040
C         -1.58470       -2.66060       10.83060
C         -1.42460       -1.54320       11.74640
S         -0.70580       -0.04540       11.23530
C         -0.88680        0.66580       12.80230
C         -0.38090        2.03630       13.08940
C          1.11110        2.00860       13.42990
C         -1.46950       -0.21840       13.66040
Cl        -1.81400        0.12840       15.30550
C         -1.77990       -1.47050       13.06480
Cl        -2.59080       -2.72290       13.91360
C         -2.20940       -2.51180        9.59940
C         -2.40470       -3.58760        8.69990
C         -1.96020       -4.87670        9.03720
C         -2.14510       -6.00080        8.13430
S         -1.59140       -5.93300        6.48650
C         -2.12590       -7.54610        6.15660
C         -1.98510       -8.13620        4.79730
C         -3.02570       -7.55290        3.83880
C         -2.70480       -8.08760        7.26450
C         -2.71090       -7.21870        8.38970
Cl        -3.44210       -7.64920        9.87800
Cl        -3.36790       -9.66900        7.32500
C         -1.31070       -5.01940       10.25790
S         -0.57160       -6.47760       10.85430
C         -3.08370       -3.17620        7.52680
C         -3.38780       -1.84780        7.51100
S         -2.87050       -1.02830        8.97050
C         -4.00640       -1.12070        6.45250
C         -4.26160        0.21670        6.38810
C         -4.81550        0.62970        5.15080
C         -5.14550        1.93640        4.74110
C         -5.08180        3.04720        5.67310
S         -4.24570        4.52130        5.28420
C         -4.62950        5.23370        6.81250
C         -4.12640        6.58460        7.18420
C         -2.75280        6.49050        7.85330
C         -5.36170        4.36820        7.57000
Cl        -5.93020        4.72570        9.14910
C         -5.62430        3.12970        6.92730
Cl        -6.60070        1.91180        7.64140
C         -5.49720        2.10560        3.40740
C         -5.61740        1.01560        2.51330
C         -5.37810       -0.30160        2.94300
C         -5.52250       -1.40690        2.01100
S         -4.22990       -2.53010        1.71310
C         -5.13750       -3.37640        0.50530
C         -4.55850       -4.52450       -0.24720
C         -3.62530       -5.37220        0.60970
C         -6.37190       -2.81460        0.36270
C         -6.59060       -1.69370        1.20610
Cl        -8.08190       -0.84320        1.24450
Cl        -7.57170       -3.39250       -0.71870
C         -4.94710       -0.45750        4.25040
S         -4.46070       -1.95850        4.98160
C         -5.86540        1.44020        1.19130
C         -5.94210        2.79700        1.05380
S         -5.76900        3.62220        2.58670
C         -5.92380        3.44360       -0.22080
C         -6.15150        2.79800       -1.40280
C         -5.62400        3.47760       -2.52140
C         -5.40430        2.93380       -3.79710
C         -5.82770        1.57090       -4.10180
S         -6.95430        1.20640       -5.37060
C         -6.91290       -0.48940       -5.02400
C         -7.77630       -1.45480       -5.75850
C         -9.13550       -1.60100       -5.06930
C         -6.06550       -0.74210       -3.98660
Cl        -5.75860       -2.30480       -3.35270
C         -5.44490        0.42360       -3.46430
Cl        -4.28540        0.35840       -2.19530
C         -4.60120        3.66590       -4.65080
C         -4.05460        4.93290       -4.31990
C         -4.36720        5.52480       -3.07780
C         -3.89540        6.84340       -2.69500
S         -2.24440        7.35990       -2.89000
C         -2.56080        8.91910       -2.21320
C         -1.47420        9.92270       -2.05210
C         -0.68520        9.67590       -0.76400
C         -3.87050        9.01740       -1.84940
C         -4.62880        7.84730       -2.11950
Cl        -6.31490        7.76790       -1.82860
Cl        -4.56420       10.41840       -1.14320
C         -5.09400        4.74560       -2.18100
S         -5.24570        5.03940       -0.46750
C         -3.06110        5.33190       -5.24880
C         -2.78940        4.38530       -6.20010
S         -3.92170        3.03980       -6.12410
C         -1.57990        4.18160       -6.92370
S         -1.16200        2.52740       -7.21550
C          0.52050        2.88600       -7.44370
C          0.72330        4.26860       -7.45480
C         -0.47750        5.01090       -7.14800
C         -0.44370        6.42180       -7.07620
C          0.75470        7.03500       -7.28450
C          1.10600        8.47000       -7.26080
O          0.40880        9.42680       -7.02700
N          2.45740        8.52640       -7.56730
C          3.20850        9.76180       -7.61830
C          3.77330       10.12050       -6.24810
C          3.03230        7.27870       -7.77260
O          4.19000        7.09100       -8.05240
C          1.93720        6.30390       -7.58540
C          1.94450        4.94480       -7.67750
C          1.41340        1.78850       -7.30500
C          0.98690        0.55490       -6.88810
C          2.02100       -0.32490       -6.52300
C          1.87660       -1.55770       -5.86090
C          0.54660       -2.06230       -5.55700
S         -0.64720       -2.26030       -6.80650
C         -1.89200       -2.65490       -5.66870
C         -3.29610       -2.85130       -6.12060
C         -3.86570       -1.54680       -6.68330
C         -1.38720       -2.65550       -4.40380
Cl        -2.31270       -2.98340       -3.00180
C         -0.00540       -2.32600       -4.33440
Cl         0.82500       -2.17770       -2.84130
C          3.04080       -2.17380       -5.43710
C          4.33180       -1.62310       -5.65180
C          4.46680       -0.37180       -6.28550
C          5.76060        0.27440       -6.42650
S          6.28800        0.90410       -7.95890
C          7.77380        1.49010       -7.29580
C          8.79560        2.15000       -8.15350
C          9.70730        1.11470       -8.81660
C          7.84450        1.20280       -5.96500
C          6.70250        0.52150       -5.46540
Cl         6.51160        0.14860       -3.80000
Cl         9.17290        1.62550       -4.96430
C          3.29980        0.25020       -6.71060
S          3.16620        1.87010       -7.35650
C          5.34540       -2.45230       -5.10960
C          4.86080       -3.55360       -4.46650
S          3.11680       -3.67390       -4.56950
C          5.55380       -4.50830       -3.66690
C          4.97370       -5.48120       -2.90800
C          5.89290       -6.20660       -2.11410
C          5.61430       -7.22340       -1.18440
C          4.24180       -7.60790       -0.89630
S          3.06180       -6.40400       -0.45840
C          1.80340       -7.57860       -0.29190
C          0.42800       -7.18260        0.11960
C          0.30240       -7.11300        1.64320
C          2.28720       -8.82640       -0.54920
Cl         1.33390      -10.25170       -0.48490
C          3.66580       -8.84790       -0.89540
Cl         4.47060      -10.28860       -1.35610
C          6.70330       -7.79340       -0.53560
C          8.03780       -7.37480       -0.76340
C          8.30670       -6.32190       -1.65200
C          9.64970       -5.78980       -1.81610
S         10.37340       -5.60110       -3.38440
C         11.81880       -4.91980       -2.72110
C         12.92060       -4.44290       -3.60120
C         12.64790       -3.01560       -4.08290
C         11.72610       -4.83920       -1.36350
C         10.49980       -5.33560       -0.84590
Cl        10.11320       -5.27900        0.82560
Cl        12.96130       -4.20480       -0.35510
C          7.22380       -5.77540       -2.32790
S          7.29190       -4.45530       -3.46440
C          8.96400       -8.13030        0.01300
C          8.36130       -9.03220        0.81400
S          6.63860       -9.04270        0.67370
H          0.58330       -6.18830       12.97260
H         -0.04280       -3.66410       13.06750
H         -0.94080        2.44700       13.93140
H         -0.54230        2.67150       12.21680
H          1.46510        3.01450       13.63860
H          1.68020        1.60300       12.59680
H          1.28620        1.38900       14.30570
H         -0.98440       -7.92990        4.41300
H         -2.11630       -9.21670        4.87190
H         -2.89770       -6.47580        3.75590
H         -4.02930       -7.75650        4.20400
H         -2.91730       -7.99870        2.85370
H         -3.33590       -3.83530        6.71600
H         -4.02200        0.88760        7.19290
H         -4.05390        7.20220        6.28780
H         -4.83610        7.04650        7.87320
H         -2.81440        5.88730        8.75550
H         -2.03440        6.03330        7.17710
H         -2.39940        7.48260        8.12040
H         -4.00480       -4.13860       -1.10900
H         -5.38050       -5.13270       -0.63170
H         -4.15860       -5.77360        1.46780
H         -2.79330       -4.77030        0.96840
H         -3.23030       -6.19870        0.02460
H         -5.89620        0.76360        0.35900
H         -6.62520        1.83730       -1.46860
H         -7.92210       -1.10630       -6.78220
H         -7.27700       -2.42570       -5.78280
H         -9.64810       -0.64270       -5.03710
H         -9.00490       -1.96040       -4.05180
H         -9.75480       -2.31020       -5.61170
H         -1.92120       10.91800       -2.02260
H         -0.80050        9.86730       -2.90930
H         -0.22950        8.68860       -0.78290
H         -1.34330        9.73840        0.09900
H          0.09900       10.42060       -0.65920
H         -2.47440        6.22240       -5.13180
H         -1.33880        6.99130       -6.88690
H          4.01790        9.62140       -8.33870
H          2.52950       10.54400       -7.96620
H          4.33180       11.05000       -6.31190
H          4.43900        9.33430       -5.89950
H          2.96520       10.24530       -5.53090
H          2.84310        4.40170       -7.92360
H         -0.05410        0.31670       -6.77130
H         -3.89390       -3.18230       -5.27050
H         -3.33110       -3.62320       -6.89270
H         -3.28530       -1.22120       -7.54330
H         -4.89710       -1.69000       -6.99210
H         -3.83580       -0.76270       -5.93030
H          8.29510        2.74060       -8.92230
H          9.39390        2.81890       -7.53210
H         10.22410        0.52850       -8.06090
H          9.12340        0.44210       -9.44030
H         10.44690        1.61310       -9.43720
H          6.39660       -2.23890       -5.17250
H          3.91380       -5.65940       -2.91340
H          0.19120       -6.20690       -0.30820
H         -0.27740       -7.91840       -0.27150
H         -0.70280       -6.80630        1.91890
H          1.00990       -6.39330        2.04780
H          0.50760       -8.08700        2.08050
H         13.01080       -5.10650       -4.46270
H         13.85570       -4.46750       -3.03890
H         13.45660       -2.67720       -4.72490
H         12.57010       -2.34030       -3.23480
H         11.71630       -2.97850       -4.64270
H         10.02880       -8.00110       -0.04490
H          8.82300       -9.72030        1.49500
