238

C         -5.81320      -10.44150       11.97460
C         -6.54800       -9.34920       11.68560
C         -6.05350       -8.62800       10.55750
C         -6.56200       -7.44760        9.99580
C         -7.68460       -6.72590       10.60850
C         -7.64720       -6.37990       11.95630
C         -8.67980       -5.67420       12.54250
C         -9.78960       -5.28910       11.79910
S        -11.18160       -4.41080       12.42830
C        -10.56620       -3.65810       13.97460
C         -9.52960       -2.58120       13.71650
C         -9.81890       -5.65380       10.45160
F        -10.88850       -5.31540        9.70720
C         -8.79280       -6.35050        9.85330
C         -5.92260       -6.97290        8.85990
C         -4.77530       -7.59410        8.30880
C         -4.23800       -8.75080        8.89660
C         -3.00300       -9.35110        8.37830
C         -1.87350       -8.56250        8.15150
C         -0.72270       -9.11250        7.63380
C         -0.63890      -10.47260        7.32980
S          0.90370      -11.03510        6.68510
C          0.50290      -12.55750        5.73830
C          1.63190      -12.83700        4.76580
C         -1.75660      -11.25470        7.60380
C         -2.92270      -10.71140        8.10620
F         -1.74620      -12.58970        7.38410
C         -4.91580       -9.25720        9.99610
S         -4.47460      -10.68090       10.90390
C         -4.29930       -6.90300        7.16780
C         -5.01240       -5.77880        6.86910
S         -6.34840       -5.53110        7.97300
C         -4.70580       -4.84180        5.83430
C         -3.56320       -4.82880        5.08750
C         -3.47450       -3.73360        4.19590
C         -2.40180       -3.40300        3.34710
C         -1.17730       -4.21140        3.33690
C         -0.61050       -4.65780        2.14400
C          0.50530       -5.46620        2.15530
C          1.10920       -5.86130        3.34950
S          2.53520       -6.89240        3.23030
C          2.46710       -7.93550        4.74320
C          3.33620       -9.15780        4.52750
C          0.56090       -5.36910        4.53040
F          1.11310       -5.66040        5.73140
C         -0.56080       -4.56630        4.53370
C         -2.56940       -2.28220        2.54950
C         -3.74170       -1.48670        2.58340
C         -4.79920       -1.79660        3.45580
C         -5.99090       -0.94170        3.50020
C         -5.86820        0.44070        3.62510
C         -6.97350        1.26560        3.57280
C         -8.24670        0.73770        3.38600
S         -9.72290        1.68850        3.25620
C         -9.13450        3.35380        2.78250
C         -8.52460        3.38350        1.39500
C         -8.36080       -0.65240        3.31770
C         -7.26650       -1.48680        3.37350
F         -9.58090       -1.20240        3.16400
C         -4.63920       -2.92620        4.24230
S         -5.76920       -3.51040        5.43690
C         -3.66890       -0.40620        1.67210
C         -2.48380       -0.32500        1.00520
S         -1.38980       -1.62460        1.43900
C         -2.11270        0.70490        0.09240
C         -0.93640        0.90120       -0.56590
C         -0.91110        2.09430       -1.33570
C          0.12730        2.60210       -2.13250
C          1.42990        1.93670       -2.25180
C          2.15990        1.54500       -1.13140
C          3.41050        0.97880       -1.27140
C          3.97390        0.77450       -2.52730
S          5.58550        0.03970       -2.63410
C          6.45430        1.22330       -3.72580
C          6.54730        2.60570       -3.11290
C          3.21600        1.13050       -3.63760
F          3.67670        0.90230       -4.88800
C          1.97360        1.71400       -3.51370
C         -0.12980        3.78420       -2.81200
C         -1.36650        4.47200       -2.75630
C         -2.40220        3.96860       -1.95610
C         -3.71210        4.62280       -1.84530
C         -4.46480        4.93980       -2.97140
C         -5.73050        5.48300       -2.85460
C         -6.28890        5.72720       -1.60520
S         -7.89110        6.40070       -1.30990
C         -8.77360        6.15670       -2.88860
C         -9.04790        4.69220       -3.17140
C         -5.50730        5.43680       -0.48630
C         -4.24810        4.89360       -0.58760
F         -6.00490        5.68800        0.74290
C         -2.13680        2.80040       -1.25700
S         -3.27370        1.98250       -0.22180
C         -1.34360        5.66890       -3.52100
C         -0.14290        5.91680       -4.10940
S          1.03150        4.65520       -3.77930
C          0.22450        6.98850       -4.98210
S         -0.95550        7.65680       -6.09830
C          0.25730        8.64430       -6.88630
C          1.44730        8.51510       -6.24290
C          1.44050        7.56920       -5.18950
C          2.79950        7.45010       -4.58310
C          3.69840        8.14330       -5.62560
C          2.79600        9.14500       -6.36760
C          0.00690        9.25830       -8.19100
C          0.45370        8.63530       -9.28090
C          1.10080        7.32720       -9.14870
S          2.83950        7.16640       -9.07230
C          2.74210        5.47570       -8.60080
C          1.42920        5.08910       -8.57110
C          0.51910        6.12610       -8.88440
C         -0.88650        5.62080       -8.83080
C         -0.74400        4.36020       -7.96030
C          0.69090        3.84660       -8.19400
C          3.93980        4.78280       -8.25950
C          4.05130        3.45170       -8.07720
C          5.25260        2.80750       -7.65470
C          5.50870        1.46780       -7.63280
C          6.80040        1.13530       -7.14770
C          7.36780       -0.13800       -6.98970
C          6.62160       -1.36650       -7.29080
C          5.38480       -1.61140       -6.70190
C          4.70140       -2.78660       -6.94500
C          5.23040       -3.75740       -7.78760
S          4.44500       -5.28650       -8.18440
C          3.31780       -5.56890       -6.77460
C          4.06800       -5.79040       -5.47530
C          6.46040       -3.48820       -8.38810
F          6.99280       -4.39490       -9.23160
C          7.15700       -2.32490       -8.14750
C          8.66490       -0.18720       -6.49870
C          9.39260        0.96360       -6.11350
C          8.81790        2.23570       -6.24990
C          9.50790        3.44700       -5.78760
C          9.65350        4.56080       -6.61160
C         10.29050        5.69380       -6.15290
C         10.78810        5.77320       -4.85320
S         11.52630        7.30520       -4.36550
C         12.93140        6.81670       -3.29770
C         13.90170        5.90180       -4.01680
C         10.60790        4.66450       -4.03220
C          9.99870        3.51280       -4.48730
F         11.02040        4.67700       -2.74400
C          7.54450        2.29000       -6.79610
S          6.61720        3.74250       -7.05980
C         10.68970        0.62450       -5.62550
C         10.91700       -0.70460       -5.61960
S          9.58600       -1.64090       -6.20780
H         -5.96970      -11.15270       12.76200
H         -7.42560       -9.05670       12.23300
H         -6.78680       -6.64910       12.55060
H         -8.61350       -5.43020       13.59040
H        -10.19520       -4.44660       14.62830
H        -11.46430       -3.23260       14.42250
H         -9.94690       -1.80500       13.07950
H         -8.65180       -2.99340       13.22310
H         -9.22060       -2.13110       14.65800
H         -8.87260       -6.60800        8.80910
H         -1.89750       -7.51220        8.39860
H          0.14450       -8.49470        7.45570
H          0.37960      -13.37760        6.44380
H         -0.43320      -12.37720        5.21240
H          1.74390      -12.01540        4.06240
H          1.41790      -13.74720        4.21000
H          2.57190      -12.96690        5.29740
H         -3.76420      -11.36570        8.27120
H         -3.46530       -7.24440        6.58370
H         -2.80200       -5.58110        5.17200
H         -1.06800       -4.39580        1.20280
H          0.93010       -5.82150        1.22950
H          2.82210       -7.34870        5.58820
H          1.42590       -8.21660        4.89590
H          3.26590       -9.80870        5.39590
H          4.37470       -8.86840        4.38500
H          3.00930       -9.70750        3.64770
H         -0.92690       -4.19580        5.47880
H         -4.89290        0.87640        3.78260
H         -6.83590        2.32970        3.67610
H         -8.44700        3.71650        3.54500
H        -10.04090        3.95780        2.81990
H         -9.24360        3.02730        0.66080
H         -7.63840        2.75400        1.34240
H         -8.24070        4.40280        1.14320
H         -7.41360       -2.55140        3.28210
H         -4.47060        0.29140        1.50930
H         -0.11550        0.20920       -0.50550
H          1.75960        1.72050       -0.14470
H          3.98090        0.69190       -0.40200
H          5.94750        1.24450       -4.68680
H          7.44000        0.77880       -3.86020
H          7.05720        2.56700       -2.15260
H          5.55490        3.02790       -2.96110
H          7.10230        3.26400       -3.77900
H          1.42630        1.96580       -4.40850
H         -4.06650        4.73510       -3.95380
H         -6.28170        5.71320       -3.75210
H         -8.20690        6.63740       -3.68500
H         -9.70420        6.70610       -2.74630
H         -9.60130        4.59300       -4.10320
H         -9.63920        4.25950       -2.36790
H         -8.12050        4.12950       -3.25560
H         -3.68910        4.69480        0.31280
H         -2.17980        6.33970       -3.60350
H          3.09740        6.41740       -4.40500
H          2.82460        7.97940       -3.62620
H          4.56140        8.62430       -5.16890
H          4.06020        7.39810       -6.33500
H          3.10740        9.30910       -7.39780
H          2.78760       10.11270       -5.85750
H         -0.53130       10.19420       -8.24300
H          0.34720        9.06480      -10.26760
H         -1.59140        6.34020       -8.41750
H         -1.21810        5.36030       -9.84020
H         -1.49530        3.60760       -8.19510
H         -0.85810        4.64010       -6.91120
H          0.71780        3.12540       -9.01610
H          1.10710        3.36930       -7.30610
H          4.82140        5.40010       -8.13320
H          3.21170        2.79780       -8.26130
H          4.79910        0.73190       -7.96490
H          4.95890       -0.88380       -6.03030
H          3.74520       -2.93940       -6.47100
H          2.77040       -6.46530       -7.06610
H          2.61460       -4.73940       -6.71180
H          4.75080       -6.63080       -5.57520
H          4.64530       -4.90930       -5.20280
H          3.36440       -6.00570       -4.67330
H          8.10450       -2.16900       -8.63880
H          9.28690        4.52720       -7.62560
H         10.41470        6.54910       -6.79850
H         12.54520        6.36710       -2.38560
H         13.39870        7.77060       -3.05280
H         14.25260        6.36410       -4.93710
H         14.75830        5.70100       -3.37650
H         13.42940        4.95310       -4.26510
H          9.87910        2.68510       -3.80490
H         11.41320        1.35520       -5.31230
H         11.80470       -1.21940       -5.30740
