106

C          1.23970       13.06000        3.26300
S          1.23470       11.37770        2.84510
C         -0.43780       11.27890        3.26090
C         -1.50590       10.37980        3.31070
C         -2.61940       11.10830        3.78760
N         -2.26200       12.41200        4.00780
C         -3.11100       13.44640        4.53940
C         -3.05500       13.48860        6.06520
C         -0.93310       12.52130        3.70120
C          0.04250       13.53780        3.69710
C         -3.78410       10.34650        3.89210
C         -3.57180        9.04920        3.47460
S         -1.90580        8.73700        2.99620
C         -4.48060        7.96170        3.39730
O         -3.94780        6.72920        3.39090
C         -4.95310        5.81610        3.38610
C         -6.16010        6.46170        3.42620
C         -5.87770        7.85910        3.39730
C         -6.94130        8.82510        3.28670
O         -8.05610        8.68580        3.73490
C         -6.69860       10.07680        2.38440
F         -6.60780       11.21770        3.09110
F         -5.59830       10.00470        1.62070
F         -7.73000       10.22860        1.54730
C         -4.60310        4.43760        3.28880
S         -2.91040        3.99530        3.43210
C         -3.31420        2.35420        3.09850
C         -2.72310        1.10970        2.88120
C         -3.76080        0.22040        2.53510
N         -4.95960        0.88300        2.54640
C         -6.25840        0.29830        2.33860
C         -6.85900       -0.21260        3.64710
C         -4.70050        2.18350        2.89460
C         -5.43040        3.37120        3.01690
C         -3.30730       -1.06110        2.19690
C         -1.93920       -1.15850        2.29970
S         -1.18190        0.33840        2.84120
C         -1.10890       -2.24920        1.92260
S         -1.74680       -3.49550        0.85230
C         -0.17790       -4.20330        0.73220
C          0.52180       -5.20130        0.05370
C          1.86640       -5.10860        0.47310
N          1.99400       -4.10600        1.39990
C          3.22230       -3.63000        1.97990
C          3.87760       -2.55740        1.11170
C          0.76130       -3.52280        1.53410
C          0.22950       -2.41220        2.19800
C          2.72050       -5.99310       -0.19090
C          2.04350       -6.74720       -1.12800
S          0.31890       -6.40190       -1.16550
C          2.60070       -7.65250       -2.07280
S          1.61910       -8.20820       -3.41970
C          2.97740       -9.03840       -4.08130
C          3.35900       -9.78900       -5.19320
C          4.73300      -10.09250       -5.01200
N          5.17480       -9.57100       -3.82140
C          6.53370       -9.56800       -3.34750
C          7.31370       -8.36780       -3.88190
C          4.11850       -8.90030       -3.26200
C          3.90140       -8.11440       -2.12730
C          5.27440      -10.80970       -6.06700
C          4.32850      -11.05120       -7.05970
S          2.74170      -10.39760       -6.67930
C          4.62450      -11.73240       -8.26210
O          5.87930      -12.19380       -8.42250
C          5.95730      -12.78690       -9.63610
C          4.77700      -12.72600      -10.28730
C          3.87280      -12.03930       -9.41320
C          2.50650      -11.71770       -9.64630
O          1.74150      -11.15670       -8.88510
C          1.97420      -12.14340      -11.04280
F          2.67390      -11.57690      -12.04400
F          0.70070      -11.80000      -11.21640
F          2.05240      -13.47370      -11.23220
H          2.15680       13.60500        3.15830
H         -4.13360       13.25270        4.20540
H         -2.78440       14.40370        4.12450
H         -2.03800       13.67840        6.40100
H         -3.70110       14.27740        6.43960
H         -3.38510       12.53950        6.48060
H         -0.12100       14.55730        3.99500
H         -4.71810       10.70000        4.28370
H         -7.13870        6.03080        3.43120
H         -6.15230       -0.52500        1.62740
H         -6.90930        1.05780        1.89750
H         -6.96390        0.60410        4.35760
H         -7.83820       -0.64620        3.46440
H         -6.21560       -0.97210        4.08520
H         -6.49260        3.47010        2.89290
H         -3.92290       -1.88320        1.87970
H          2.99710       -3.22450        2.97010
H          3.89600       -4.48290        2.09900
H          4.10240       -2.95650        0.12540
H          4.80080       -2.21650        1.57200
H          3.20890       -1.70780        0.99620
H          0.77540       -1.73800        2.83280
H          3.78100       -6.06210       -0.03430
H          6.51440       -9.54780       -2.25440
H          7.00900      -10.49840       -3.66900
H          7.33360       -8.38670       -4.96880
H          6.84380       -7.44090       -3.56170
H          8.33500       -8.38990       -3.51190
H          4.64040       -7.88310       -1.38300
H          6.29180      -11.14420       -6.15300
H          6.90530      -13.20710       -9.90650
H          4.56200      -13.11550      -11.25970
