
  xtb     03012201153D
 energy: -210.112268287726 gnorm: 0.000177656781 xtb: 6.4.1 (unknown)
106119  0     0  0            999 V2000
    1.2397   13.0600    3.2630 C   0  0  0  0  0  0  0  0  0  0  0  0
    1.2347   11.3777    2.8451 S   0  0  0  0  0  0  0  0  0  0  0  0
   -0.4378   11.2789    3.2609 C   0  0  0  0  0  0  0  0  0  0  0  0
   -1.5059   10.3798    3.3107 C   0  0  0  0  0  0  0  0  0  0  0  0
   -2.6194   11.1083    3.7876 C   0  0  0  0  0  0  0  0  0  0  0  0
   -2.2620   12.4120    4.0078 N   0  0  0  0  0  0  0  0  0  0  0  0
   -3.1110   13.4464    4.5394 C   0  0  0  0  0  0  0  0  0  0  0  0
   -3.0550   13.4886    6.0652 C   0  0  0  0  0  0  0  0  0  0  0  0
   -0.9331   12.5213    3.7012 C   0  0  0  0  0  0  0  0  0  0  0  0
    0.0425   13.5378    3.6971 C   0  0  0  0  0  0  0  0  0  0  0  0
   -3.7841   10.3465    3.8921 C   0  0  0  0  0  0  0  0  0  0  0  0
   -3.5718    9.0492    3.4746 C   0  0  0  0  0  0  0  0  0  0  0  0
   -1.9058    8.7370    2.9962 S   0  0  0  0  0  0  0  0  0  0  0  0
   -4.4806    7.9617    3.3973 C   0  0  0  0  0  0  0  0  0  0  0  0
   -3.9478    6.7292    3.3909 O   0  0  0  0  0  0  0  0  0  0  0  0
   -4.9531    5.8161    3.3861 C   0  0  0  0  0  0  0  0  0  0  0  0
   -6.1601    6.4617    3.4262 C   0  0  0  0  0  0  0  0  0  0  0  0
   -5.8777    7.8591    3.3973 C   0  0  0  0  0  0  0  0  0  0  0  0
   -6.9413    8.8251    3.2867 C   0  0  0  0  0  0  0  0  0  0  0  0
   -8.0561    8.6858    3.7349 O   0  0  0  0  0  0  0  0  0  0  0  0
   -6.6986   10.0768    2.3844 C   0  0  0  0  0  0  0  0  0  0  0  0
   -6.6078   11.2177    3.0911 F   0  0  0  0  0  0  0  0  0  0  0  0
   -5.5983   10.0047    1.6207 F   0  0  0  0  0  0  0  0  0  0  0  0
   -7.7300   10.2286    1.5473 F   0  0  0  0  0  0  0  0  0  0  0  0
   -4.6031    4.4376    3.2888 C   0  0  0  0  0  0  0  0  0  0  0  0
   -2.9104    3.9953    3.4321 S   0  0  0  0  0  0  0  0  0  0  0  0
   -3.3142    2.3542    3.0985 C   0  0  0  0  0  0  0  0  0  0  0  0
   -2.7231    1.1097    2.8812 C   0  0  0  0  0  0  0  0  0  0  0  0
   -3.7608    0.2204    2.5351 C   0  0  0  0  0  0  0  0  0  0  0  0
   -4.9596    0.8830    2.5464 N   0  0  0  0  0  0  0  0  0  0  0  0
   -6.2584    0.2983    2.3386 C   0  0  0  0  0  0  0  0  0  0  0  0
   -6.8590   -0.2126    3.6471 C   0  0  0  0  0  0  0  0  0  0  0  0
   -4.7005    2.1835    2.8946 C   0  0  0  0  0  0  0  0  0  0  0  0
   -5.4304    3.3712    3.0169 C   0  0  0  0  0  0  0  0  0  0  0  0
   -3.3073   -1.0611    2.1969 C   0  0  0  0  0  0  0  0  0  0  0  0
   -1.9392   -1.1585    2.2997 C   0  0  0  0  0  0  0  0  0  0  0  0
   -1.1819    0.3384    2.8412 S   0  0  0  0  0  0  0  0  0  0  0  0
   -1.1089   -2.2492    1.9226 C   0  0  0  0  0  0  0  0  0  0  0  0
   -1.7468   -3.4955    0.8523 S   0  0  0  0  0  0  0  0  0  0  0  0
   -0.1779   -4.2033    0.7322 C   0  0  0  0  0  0  0  0  0  0  0  0
    0.5218   -5.2013    0.0537 C   0  0  0  0  0  0  0  0  0  0  0  0
    1.8664   -5.1086    0.4731 C   0  0  0  0  0  0  0  0  0  0  0  0
    1.9940   -4.1060    1.3999 N   0  0  0  0  0  0  0  0  0  0  0  0
    3.2223   -3.6300    1.9799 C   0  0  0  0  0  0  0  0  0  0  0  0
    3.8776   -2.5574    1.1117 C   0  0  0  0  0  0  0  0  0  0  0  0
    0.7613   -3.5228    1.5341 C   0  0  0  0  0  0  0  0  0  0  0  0
    0.2295   -2.4122    2.1980 C   0  0  0  0  0  0  0  0  0  0  0  0
    2.7205   -5.9931   -0.1909 C   0  0  0  0  0  0  0  0  0  0  0  0
    2.0435   -6.7472   -1.1280 C   0  0  0  0  0  0  0  0  0  0  0  0
    0.3189   -6.4019   -1.1655 S   0  0  0  0  0  0  0  0  0  0  0  0
    2.6007   -7.6525   -2.0728 C   0  0  0  0  0  0  0  0  0  0  0  0
    1.6191   -8.2082   -3.4197 S   0  0  0  0  0  0  0  0  0  0  0  0
    2.9774   -9.0384   -4.0813 C   0  0  0  0  0  0  0  0  0  0  0  0
    3.3590   -9.7890   -5.1932 C   0  0  0  0  0  0  0  0  0  0  0  0
    4.7330  -10.0925   -5.0120 C   0  0  0  0  0  0  0  0  0  0  0  0
    5.1748   -9.5710   -3.8214 N   0  0  0  0  0  0  0  0  0  0  0  0
    6.5337   -9.5680   -3.3475 C   0  0  0  0  0  0  0  0  0  0  0  0
    7.3137   -8.3678   -3.8819 C   0  0  0  0  0  0  0  0  0  0  0  0
    4.1185   -8.9003   -3.2620 C   0  0  0  0  0  0  0  0  0  0  0  0
    3.9014   -8.1144   -2.1273 C   0  0  0  0  0  0  0  0  0  0  0  0
    5.2744  -10.8097   -6.0670 C   0  0  0  0  0  0  0  0  0  0  0  0
    4.3285  -11.0512   -7.0597 C   0  0  0  0  0  0  0  0  0  0  0  0
    2.7417  -10.3976   -6.6793 S   0  0  0  0  0  0  0  0  0  0  0  0
    4.6245  -11.7324   -8.2621 C   0  0  0  0  0  0  0  0  0  0  0  0
    5.8793  -12.1938   -8.4225 O   0  0  0  0  0  0  0  0  0  0  0  0
    5.9573  -12.7869   -9.6361 C   0  0  0  0  0  0  0  0  0  0  0  0
    4.7770  -12.7260  -10.2873 C   0  0  0  0  0  0  0  0  0  0  0  0
    3.8728  -12.0393   -9.4132 C   0  0  0  0  0  0  0  0  0  0  0  0
    2.5065  -11.7177   -9.6463 C   0  0  0  0  0  0  0  0  0  0  0  0
    1.7415  -11.1567   -8.8851 O   0  0  0  0  0  0  0  0  0  0  0  0
    1.9742  -12.1434  -11.0428 C   0  0  0  0  0  0  0  0  0  0  0  0
    2.6739  -11.5769  -12.0440 F   0  0  0  0  0  0  0  0  0  0  0  0
    0.7007  -11.8000  -11.2164 F   0  0  0  0  0  0  0  0  0  0  0  0
    2.0524  -13.4737  -11.2322 F   0  0  0  0  0  0  0  0  0  0  0  0
    2.1568   13.6050    3.1583 H   0  0  0  0  0  0  0  0  0  0  0  0
   -4.1336   13.2527    4.2054 H   0  0  0  0  0  0  0  0  0  0  0  0
   -2.7844   14.4037    4.1245 H   0  0  0  0  0  0  0  0  0  0  0  0
   -2.0380   13.6784    6.4010 H   0  0  0  0  0  0  0  0  0  0  0  0
   -3.7011   14.2774    6.4396 H   0  0  0  0  0  0  0  0  0  0  0  0
   -3.3851   12.5395    6.4806 H   0  0  0  0  0  0  0  0  0  0  0  0
   -0.1210   14.5573    3.9950 H   0  0  0  0  0  0  0  0  0  0  0  0
   -4.7181   10.7000    4.2837 H   0  0  0  0  0  0  0  0  0  0  0  0
   -7.1387    6.0308    3.4312 H   0  0  0  0  0  0  0  0  0  0  0  0
   -6.1523   -0.5250    1.6274 H   0  0  0  0  0  0  0  0  0  0  0  0
   -6.9093    1.0578    1.8975 H   0  0  0  0  0  0  0  0  0  0  0  0
   -6.9639    0.6041    4.3576 H   0  0  0  0  0  0  0  0  0  0  0  0
   -7.8382   -0.6462    3.4644 H   0  0  0  0  0  0  0  0  0  0  0  0
   -6.2156   -0.9721    4.0852 H   0  0  0  0  0  0  0  0  0  0  0  0
   -6.4926    3.4701    2.8929 H   0  0  0  0  0  0  0  0  0  0  0  0
   -3.9229   -1.8832    1.8797 H   0  0  0  0  0  0  0  0  0  0  0  0
    2.9971   -3.2245    2.9701 H   0  0  0  0  0  0  0  0  0  0  0  0
    3.8960   -4.4829    2.0990 H   0  0  0  0  0  0  0  0  0  0  0  0
    4.1024   -2.9565    0.1254 H   0  0  0  0  0  0  0  0  0  0  0  0
    4.8008   -2.2165    1.5720 H   0  0  0  0  0  0  0  0  0  0  0  0
    3.2089   -1.7078    0.9962 H   0  0  0  0  0  0  0  0  0  0  0  0
    0.7754   -1.7380    2.8328 H   0  0  0  0  0  0  0  0  0  0  0  0
    3.7810   -6.0621   -0.0343 H   0  0  0  0  0  0  0  0  0  0  0  0
    6.5144   -9.5478   -2.2544 H   0  0  0  0  0  0  0  0  0  0  0  0
    7.0090  -10.4984   -3.6690 H   0  0  0  0  0  0  0  0  0  0  0  0
    7.3336   -8.3867   -4.9688 H   0  0  0  0  0  0  0  0  0  0  0  0
    6.8438   -7.4409   -3.5617 H   0  0  0  0  0  0  0  0  0  0  0  0
    8.3350   -8.3899   -3.5119 H   0  0  0  0  0  0  0  0  0  0  0  0
    4.6404   -7.8831   -1.3830 H   0  0  0  0  0  0  0  0  0  0  0  0
    6.2918  -11.1442   -6.1530 H   0  0  0  0  0  0  0  0  0  0  0  0
    6.9053  -13.2071   -9.9065 H   0  0  0  0  0  0  0  0  0  0  0  0
    4.5620  -13.1155  -11.2597 H   0  0  0  0  0  0  0  0  0  0  0  0
  1  2  1  0  0  0  0
  2  3  1  0  0  0  0
  3  4  1  0  0  0  0
  4  5  2  0  0  0  0
  5  6  1  0  0  0  0
  6  7  1  0  0  0  0
  7  8  1  0  0  0  0
  6  9  1  0  0  0  0
  9 10  1  0  0  0  0
  5 11  1  0  0  0  0
 11 12  2  0  0  0  0
 12 13  1  0  0  0  0
 12 14  1  0  0  0  0
 14 15  1  0  0  0  0
 15 16  1  0  0  0  0
 16 17  2  0  0  0  0
 17 18  1  0  0  0  0
 18 19  1  0  0  0  0
 19 20  2  0  0  0  0
 19 21  1  0  0  0  0
 21 22  1  0  0  0  0
 21 23  1  0  0  0  0
 21 24  1  0  0  0  0
 16 25  1  0  0  0  0
 25 26  1  0  0  0  0
 26 27  1  0  0  0  0
 27 28  1  0  0  0  0
 28 29  2  0  0  0  0
 29 30  1  0  0  0  0
 30 31  1  0  0  0  0
 31 32  1  0  0  0  0
 30 33  1  0  0  0  0
 33 34  1  0  0  0  0
 29 35  1  0  0  0  0
 35 36  2  0  0  0  0
 36 37  1  0  0  0  0
 36 38  1  0  0  0  0
 38 39  1  0  0  0  0
 39 40  1  0  0  0  0
 40 41  1  0  0  0  0
 41 42  2  0  0  0  0
 42 43  1  0  0  0  0
 43 44  1  0  0  0  0
 44 45  1  0  0  0  0
 43 46  1  0  0  0  0
 46 47  1  0  0  0  0
 42 48  1  0  0  0  0
 48 49  2  0  0  0  0
 49 50  1  0  0  0  0
 49 51  1  0  0  0  0
 51 52  1  0  0  0  0
 52 53  1  0  0  0  0
 53 54  1  0  0  0  0
 54 55  2  0  0  0  0
 55 56  1  0  0  0  0
 56 57  1  0  0  0  0
 57 58  1  0  0  0  0
 56 59  1  0  0  0  0
 59 60  1  0  0  0  0
 55 61  1  0  0  0  0
 61 62  2  0  0  0  0
 62 63  1  0  0  0  0
 62 64  1  0  0  0  0
 64 65  1  0  0  0  0
 65 66  1  0  0  0  0
 66 67  2  0  0  0  0
 67 68  1  0  0  0  0
 68 69  1  0  0  0  0
 69 70  2  0  0  0  0
 69 71  1  0  0  0  0
 71 72  1  0  0  0  0
 71 73  1  0  0  0  0
 71 74  1  0  0  0  0
 10  1  2  0  0  0  0
 18 14  2  0  0  0  0
 34 25  2  0  0  0  0
 47 38  2  0  0  0  0
 60 51  2  0  0  0  0
 68 64  2  0  0  0  0
  9  3  2  0  0  0  0
 33 27  2  0  0  0  0
 46 40  2  0  0  0  0
 59 53  2  0  0  0  0
 13  4  1  0  0  0  0
 37 28  1  0  0  0  0
 50 41  1  0  0  0  0
 63 54  1  0  0  0  0
  1 75  1  0  0  0  0
  7 76  1  0  0  0  0
  7 77  1  0  0  0  0
  8 78  1  0  0  0  0
  8 79  1  0  0  0  0
  8 80  1  0  0  0  0
 10 81  1  0  0  0  0
 11 82  1  0  0  0  0
 17 83  1  0  0  0  0
 31 84  1  0  0  0  0
 31 85  1  0  0  0  0
 32 86  1  0  0  0  0
 32 87  1  0  0  0  0
 32 88  1  0  0  0  0
 34 89  1  0  0  0  0
 35 90  1  0  0  0  0
 44 91  1  0  0  0  0
 44 92  1  0  0  0  0
 45 93  1  0  0  0  0
 45 94  1  0  0  0  0
 45 95  1  0  0  0  0
 47 96  1  0  0  0  0
 48 97  1  0  0  0  0
 57 98  1  0  0  0  0
 57 99  1  0  0  0  0
 58100  1  0  0  0  0
 58101  1  0  0  0  0
 58102  1  0  0  0  0
 60103  1  0  0  0  0
 61104  1  0  0  0  0
 66105  1  0  0  0  0
 67106  1  0  0  0  0
M  END
