104

C          1.77310       -3.07350       11.30100
S          0.80790       -3.37960        9.89200
C          0.85710       -1.70170        9.49390
C          0.39400       -0.78100        8.54790
C          0.87370        0.48090        8.94320
N          1.62430        0.35450       10.08260
C          2.17940        1.43610       10.85280
C          1.15690        2.00630       11.83460
C          1.60150       -0.96960       10.43510
C          2.12360       -1.77110       11.47060
C          0.45490        1.52620        8.10490
C         -0.35970        1.07080        7.10410
S         -0.57110       -0.67760        7.12500
C         -1.03520        1.87310        6.10920
S         -0.00110        3.08570        5.30250
C         -0.57830        2.87760        3.65150
C          0.21560        2.88310        2.54870
S         -0.69470        2.68090        1.10430
C         -2.15930        2.55780        1.99580
C         -1.94820        2.68940        3.33140
S         -3.20680        2.61710        4.55860
C         -2.33010        1.69280        5.79980
C         -3.16720        0.72790        6.51660
S         -3.36330        1.09970        8.24450
C         -3.32500       -0.53890        8.88330
C         -2.70020       -0.90700       10.03210
S         -2.87330       -2.58930       10.33980
C         -3.77180       -2.80430        8.88940
C         -3.94390       -1.63260        8.22320
S         -4.83640       -1.46080        6.71450
C         -3.75720       -0.30220        5.88750
C         -3.53790       -0.57370        4.48490
S         -1.90600       -0.54700        3.82350
C         -2.53840       -0.81770        2.24440
C         -2.13890       -0.91450        0.91000
C         -3.31160       -1.10400        0.15200
N         -4.40340       -1.11410        0.98130
C         -5.76560       -1.37700        0.59950
C         -6.08330       -2.87070        0.64070
C         -3.93990       -0.95510        2.26160
C         -4.49700       -0.83510        3.54290
C         -3.07660       -1.19610       -1.22480
C         -1.73500       -1.08010       -1.52040
S         -0.73640       -0.85740       -0.09020
C         -1.12820       -1.11620       -2.80690
S          0.62460       -1.09020       -2.95060
C          0.49750       -1.14700       -4.66920
C          1.27670       -1.16480       -5.82800
C          0.38280       -1.20580       -6.91680
N         -0.90850       -1.23700       -6.45570
C         -2.10050       -1.16060       -7.25680
C         -2.48960        0.28830       -7.54800
C         -0.84860       -1.18190       -5.08640
C         -1.76390       -1.16670       -4.02970
C          1.01730       -1.22170       -8.16330
C          2.39000       -1.19720       -8.03570
S          2.91760       -1.15320       -6.35840
C          3.35480       -1.20220       -9.08250
S          5.06850       -1.27740       -8.69190
C          5.46560       -1.24340      -10.36910
C          6.55930       -1.25500      -11.24170
C          6.03740       -1.19350      -12.54520
N          4.66730       -1.16510      -12.49680
C          3.77810       -0.97990      -13.61210
C          3.51790        0.50130      -13.88340
C          4.31150       -1.17640      -11.17230
C          3.11860       -1.15450      -10.43930
C          7.03260       -1.19620      -13.54250
C          8.27380       -1.25910      -12.99070
S          8.28410       -1.31820      -11.25630
H          2.02490       -3.90280       11.93130
H          2.50950        2.21550       10.16060
H          3.05140        1.05880       11.39370
H          0.28830        2.38030       11.29720
H          0.82990        1.23500       12.52840
H          1.59630        2.82290       12.40070
H          2.71820       -1.41520       12.29230
H          0.69250        2.56730        8.22930
H          1.27760        3.01160        2.50540
H         -3.09210        2.40770        1.49170
H         -2.16210       -0.28160       10.71450
H         -4.13690       -3.77360        8.61870
H         -6.42350       -0.83500        1.28450
H         -5.91830       -0.98720       -0.41070
H         -5.43010       -3.41310       -0.03890
H         -5.93470       -3.25800        1.64580
H         -7.11560       -3.04200        0.34790
H         -5.54300       -0.89490        3.78370
H         -3.83390       -1.34690       -1.97130
H         -2.90730       -1.66530       -6.71810
H         -1.92000       -1.69680       -8.19260
H         -1.68680        0.79200       -8.08120
H         -3.39000        0.32100       -8.15560
H         -2.67290        0.82150       -6.61820
H         -2.83250       -1.18080       -4.13830
H          0.51370       -1.25320       -9.11160
H          4.22850       -1.44920      -14.49090
H          2.83740       -1.49150      -13.38960
H          2.84410        0.61590      -14.72810
H          3.07030        0.96960      -13.00990
H          4.45180        1.01140      -14.10720
H          2.13410       -1.10010      -10.86560
H          6.85200       -1.15230      -14.60130
H          9.21480       -1.27420      -13.50340
