113

C          0.33870       11.41480        1.59280
S          0.64570       10.12360        0.47410
C          1.27770        9.15840        1.75830
C          1.83710        7.90380        2.01990
C          2.11610        7.86680        3.39920
N          1.72850        9.04480        3.98230
C          1.93380        9.41590        5.35720
C          3.32560       10.00600        5.57920
C          1.23340        9.84400        2.98520
C          0.69180       11.14040        2.87670
C          2.69450        6.66340        3.82270
C          2.85590        5.78240        2.77940
S          2.28930        6.43190        1.24150
C          3.41090        4.47540        2.83060
S          4.02420        3.85410        4.36140
C          4.46000        2.37210        3.59440
C          5.02610        1.12580        3.86650
C          5.04320        0.41890        2.64700
N          4.51970        1.19820        1.64770
C          4.17740        0.73330        0.32870
C          2.87760       -0.07030        0.34160
C          4.13900        2.38320        2.22160
C          3.54540        3.57780        1.79660
C          5.57060       -0.87090        2.75680
C          5.91230       -1.16890        4.05510
S          5.66180        0.17870        5.15730
C          6.43180       -2.40960        4.56380
S          7.63120       -2.17530        5.87550
C          8.84940       -3.33840        5.37880
C         10.19110       -3.15430        5.48760
S         11.07100       -4.53250        4.94930
C          9.61400       -5.35420        4.54370
C          8.51700       -4.60650        4.83320
S          6.85760       -5.14270        4.62640
C          6.05670       -3.62980        4.11000
C          4.95110       -3.90290        3.22930
S          3.48550       -2.92040        3.25610
C          2.77360       -3.93140        2.05170
C          1.62920       -4.05270        1.26280
C          1.80750       -5.20290        0.46670
N          3.01550       -5.78240        0.75410
C          3.59880       -6.91570        0.08650
C          4.38400       -6.49540       -1.15500
C          3.62310       -4.99850        1.70130
C          4.84990       -4.97610        2.37370
C          0.74070       -5.44990       -0.40470
C         -0.24150       -4.48940       -0.29050
S          0.13440       -3.26580        0.91650
C         -1.45050       -4.39670       -1.03500
S         -2.39860       -2.91550       -0.97430
C         -3.53560       -3.58440       -2.08390
C         -4.71060       -3.27440       -2.76970
C         -5.04450       -4.40840       -3.53680
N         -4.12170       -5.39900       -3.32350
C         -4.07100       -6.66960       -3.99670
C         -3.30370       -6.57840       -5.31470
C         -3.18450       -4.89840       -2.45700
C         -2.00140       -5.35090       -1.86390
C         -6.20290       -4.24480       -4.30470
C         -6.75330       -2.99540       -4.13420
S         -5.84490       -1.99500       -3.00280
C         -7.91240       -2.46770       -4.76360
S         -8.83950       -3.48020       -5.86990
C         -9.94160       -2.18260       -6.14750
C        -11.09530       -1.85640       -6.86690
C        -11.40510       -0.52250       -6.54820
N        -10.47260       -0.02410       -5.67640
C        -10.49250        1.27020       -5.04830
C        -11.28600        1.25060       -3.74290
C         -9.58690       -1.03570       -5.41240
C         -8.43770       -1.20410       -4.62910
C        -12.55770       -0.04870       -7.20620
C        -13.09580       -1.01210       -8.00010
S        -12.23390       -2.51870       -7.98260
H         -0.09380       12.31960        1.21470
H          1.80270        8.52370        5.97630
H          1.16730       10.14540        5.63220
H          3.46120       10.89310        4.96450
H          3.45380       10.27900        6.62300
H          4.08860        9.27920        5.31050
H          0.56980       11.83290        3.68970
H          2.98810        6.42720        4.82960
H          4.07920        1.60360       -0.32440
H          4.99910        0.11160       -0.03970
H          2.96910       -0.92530        1.00750
H          2.64580       -0.42740       -0.65800
H          2.05460        0.54840        0.69100
H          3.22010        3.79720        0.79580
H          5.70310       -1.55950        1.94220
H         10.70690       -2.30020        5.87560
H          9.64630       -6.34550        4.14040
H          2.79300       -7.60010       -0.19290
H          4.25840       -7.42630        0.79320
H          5.18870       -5.81800       -0.87910
H          3.72990       -5.98620       -1.85910
H          4.81190       -7.36800       -1.64080
H          5.64530       -5.68510        2.23300
H          0.68650       -6.26740       -1.09930
H         -3.59010       -7.39050       -3.32990
H         -5.09690       -6.99890       -4.18270
H         -3.78340       -5.86340       -5.97890
H         -2.28250       -6.25080       -5.13380
H         -3.28070       -7.54900       -5.80250
H         -1.56570       -6.32110       -2.01540
H         -6.63110       -4.98000       -4.96180
H         -9.45940        1.57140       -4.85400
H        -10.93690        1.98350       -5.74790
H        -12.31330        0.94730       -3.93120
H        -10.84050        0.54740       -3.04320
H        -11.28880        2.23920       -3.29220
H         -7.99590       -0.45900       -3.99250
H        -12.97050        0.93840       -7.10280
H        -13.97100       -0.93740       -8.61420
