
  xtb     02282220143D
 energy: -185.902187868079 gnorm: 0.000421585332 xtb: 6.4.1 (unknown)
104119  0     0  0            999 V2000
    1.7731   -3.0735   11.3010 C   0  0  0  0  0  0  0  0  0  0  0  0
    0.8079   -3.3796    9.8920 S   0  0  0  0  0  0  0  0  0  0  0  0
    0.8571   -1.7017    9.4939 C   0  0  0  0  0  0  0  0  0  0  0  0
    0.3940   -0.7810    8.5479 C   0  0  0  0  0  0  0  0  0  0  0  0
    0.8737    0.4809    8.9432 C   0  0  0  0  0  0  0  0  0  0  0  0
    1.6243    0.3545   10.0826 N   0  0  0  0  0  0  0  0  0  0  0  0
    2.1794    1.4361   10.8528 C   0  0  0  0  0  0  0  0  0  0  0  0
    1.1569    2.0063   11.8346 C   0  0  0  0  0  0  0  0  0  0  0  0
    1.6015   -0.9696   10.4351 C   0  0  0  0  0  0  0  0  0  0  0  0
    2.1236   -1.7711   11.4706 C   0  0  0  0  0  0  0  0  0  0  0  0
    0.4549    1.5262    8.1049 C   0  0  0  0  0  0  0  0  0  0  0  0
   -0.3597    1.0708    7.1041 C   0  0  0  0  0  0  0  0  0  0  0  0
   -0.5711   -0.6776    7.1250 S   0  0  0  0  0  0  0  0  0  0  0  0
   -1.0352    1.8731    6.1092 C   0  0  0  0  0  0  0  0  0  0  0  0
   -0.0011    3.0857    5.3025 S   0  0  0  0  0  3  0  0  0  0  0  0
   -0.5783    2.8776    3.6515 C   0  0  0  0  0  0  0  0  0  0  0  0
    0.2156    2.8831    2.5487 C   0  0  0  0  0  0  0  0  0  0  0  0
   -0.6947    2.6809    1.1043 S   0  0  0  0  0  0  0  0  0  0  0  0
   -2.1593    2.5578    1.9958 C   0  0  0  0  0  0  0  0  0  0  0  0
   -1.9482    2.6894    3.3314 C   0  0  0  0  0  0  0  0  0  0  0  0
   -3.2068    2.6171    4.5586 S   0  0  0  0  0  3  0  0  0  0  0  0
   -2.3301    1.6928    5.7998 C   0  0  0  0  0  0  0  0  0  0  0  0
   -3.1672    0.7279    6.5166 C   0  0  0  0  0  0  0  0  0  0  0  0
   -3.3633    1.0997    8.2445 S   0  0  0  0  0  3  0  0  0  0  0  0
   -3.3250   -0.5389    8.8833 C   0  0  0  0  0  0  0  0  0  0  0  0
   -2.7002   -0.9070   10.0321 C   0  0  0  0  0  0  0  0  0  0  0  0
   -2.8733   -2.5893   10.3398 S   0  0  0  0  0  0  0  0  0  0  0  0
   -3.7718   -2.8043    8.8894 C   0  0  0  0  0  0  0  0  0  0  0  0
   -3.9439   -1.6326    8.2232 C   0  0  0  0  0  0  0  0  0  0  0  0
   -4.8364   -1.4608    6.7145 S   0  0  0  0  0  3  0  0  0  0  0  0
   -3.7572   -0.3022    5.8875 C   0  0  0  0  0  0  0  0  0  0  0  0
   -3.5379   -0.5737    4.4849 C   0  0  0  0  0  0  0  0  0  0  0  0
   -1.9060   -0.5470    3.8235 S   0  0  0  0  0  0  0  0  0  0  0  0
   -2.5384   -0.8177    2.2444 C   0  0  0  0  0  0  0  0  0  0  0  0
   -2.1389   -0.9145    0.9100 C   0  0  0  0  0  0  0  0  0  0  0  0
   -3.3116   -1.1040    0.1520 C   0  0  0  0  0  0  0  0  0  0  0  0
   -4.4034   -1.1141    0.9813 N   0  0  0  0  0  0  0  0  0  0  0  0
   -5.7656   -1.3770    0.5995 C   0  0  0  0  0  0  0  0  0  0  0  0
   -6.0833   -2.8707    0.6407 C   0  0  0  0  0  0  0  0  0  0  0  0
   -3.9399   -0.9551    2.2616 C   0  0  0  0  0  0  0  0  0  0  0  0
   -4.4970   -0.8351    3.5429 C   0  0  0  0  0  0  0  0  0  0  0  0
   -3.0766   -1.1961   -1.2248 C   0  0  0  0  0  0  0  0  0  0  0  0
   -1.7350   -1.0801   -1.5204 C   0  0  0  0  0  0  0  0  0  0  0  0
   -0.7364   -0.8574   -0.0902 S   0  0  0  0  0  0  0  0  0  0  0  0
   -1.1282   -1.1162   -2.8069 C   0  0  0  0  0  0  0  0  0  0  0  0
    0.6246   -1.0902   -2.9506 S   0  0  0  0  0  0  0  0  0  0  0  0
    0.4975   -1.1470   -4.6692 C   0  0  0  0  0  0  0  0  0  0  0  0
    1.2767   -1.1648   -5.8280 C   0  0  0  0  0  0  0  0  0  0  0  0
    0.3828   -1.2058   -6.9168 C   0  0  0  0  0  0  0  0  0  0  0  0
   -0.9085   -1.2370   -6.4557 N   0  0  0  0  0  0  0  0  0  0  0  0
   -2.1005   -1.1606   -7.2568 C   0  0  0  0  0  0  0  0  0  0  0  0
   -2.4896    0.2883   -7.5480 C   0  0  0  0  0  0  0  0  0  0  0  0
   -0.8486   -1.1819   -5.0864 C   0  0  0  0  0  0  0  0  0  0  0  0
   -1.7639   -1.1667   -4.0297 C   0  0  0  0  0  0  0  0  0  0  0  0
    1.0173   -1.2217   -8.1633 C   0  0  0  0  0  0  0  0  0  0  0  0
    2.3900   -1.1972   -8.0357 C   0  0  0  0  0  0  0  0  0  0  0  0
    2.9176   -1.1532   -6.3584 S   0  0  0  0  0  0  0  0  0  0  0  0
    3.3548   -1.2022   -9.0825 C   0  0  0  0  0  0  0  0  0  0  0  0
    5.0685   -1.2774   -8.6919 S   0  0  0  0  0  0  0  0  0  0  0  0
    5.4656   -1.2434  -10.3691 C   0  0  0  0  0  0  0  0  0  0  0  0
    6.5593   -1.2550  -11.2417 C   0  0  0  0  0  0  0  0  0  0  0  0
    6.0374   -1.1935  -12.5452 C   0  0  0  0  0  0  0  0  0  0  0  0
    4.6673   -1.1651  -12.4968 N   0  0  0  0  0  0  0  0  0  0  0  0
    3.7781   -0.9799  -13.6121 C   0  0  0  0  0  0  0  0  0  0  0  0
    3.5179    0.5013  -13.8834 C   0  0  0  0  0  0  0  0  0  0  0  0
    4.3115   -1.1764  -11.1723 C   0  0  0  0  0  0  0  0  0  0  0  0
    3.1186   -1.1545  -10.4393 C   0  0  0  0  0  0  0  0  0  0  0  0
    7.0326   -1.1962  -13.5425 C   0  0  0  0  0  0  0  0  0  0  0  0
    8.2738   -1.2591  -12.9907 C   0  0  0  0  0  0  0  0  0  0  0  0
    8.2841   -1.3182  -11.2563 S   0  0  0  0  0  0  0  0  0  0  0  0
    2.0249   -3.9028   11.9313 H   0  0  0  0  0  0  0  0  0  0  0  0
    2.5095    2.2155   10.1606 H   0  0  0  0  0  0  0  0  0  0  0  0
    3.0514    1.0588   11.3937 H   0  0  0  0  0  0  0  0  0  0  0  0
    0.2883    2.3803   11.2972 H   0  0  0  0  0  0  0  0  0  0  0  0
    0.8299    1.2350   12.5284 H   0  0  0  0  0  0  0  0  0  0  0  0
    1.5963    2.8229   12.4007 H   0  0  0  0  0  0  0  0  0  0  0  0
    2.7182   -1.4152   12.2923 H   0  0  0  0  0  0  0  0  0  0  0  0
    0.6925    2.5673    8.2293 H   0  0  0  0  0  0  0  0  0  0  0  0
    1.2776    3.0116    2.5054 H   0  0  0  0  0  0  0  0  0  0  0  0
   -3.0921    2.4077    1.4917 H   0  0  0  0  0  0  0  0  0  0  0  0
   -2.1621   -0.2816   10.7145 H   0  0  0  0  0  0  0  0  0  0  0  0
   -4.1369   -3.7736    8.6187 H   0  0  0  0  0  0  0  0  0  0  0  0
   -6.4235   -0.8350    1.2845 H   0  0  0  0  0  0  0  0  0  0  0  0
   -5.9183   -0.9872   -0.4107 H   0  0  0  0  0  0  0  0  0  0  0  0
   -5.4301   -3.4131   -0.0389 H   0  0  0  0  0  0  0  0  0  0  0  0
   -5.9347   -3.2580    1.6458 H   0  0  0  0  0  0  0  0  0  0  0  0
   -7.1156   -3.0420    0.3479 H   0  0  0  0  0  0  0  0  0  0  0  0
   -5.5430   -0.8949    3.7837 H   0  0  0  0  0  0  0  0  0  0  0  0
   -3.8339   -1.3469   -1.9713 H   0  0  0  0  0  0  0  0  0  0  0  0
   -2.9073   -1.6653   -6.7181 H   0  0  0  0  0  0  0  0  0  0  0  0
   -1.9200   -1.6968   -8.1926 H   0  0  0  0  0  0  0  0  0  0  0  0
   -1.6868    0.7920   -8.0812 H   0  0  0  0  0  0  0  0  0  0  0  0
   -3.3900    0.3210   -8.1556 H   0  0  0  0  0  0  0  0  0  0  0  0
   -2.6729    0.8215   -6.6182 H   0  0  0  0  0  0  0  0  0  0  0  0
   -2.8325   -1.1808   -4.1383 H   0  0  0  0  0  0  0  0  0  0  0  0
    0.5137   -1.2532   -9.1116 H   0  0  0  0  0  0  0  0  0  0  0  0
    4.2285   -1.4492  -14.4909 H   0  0  0  0  0  0  0  0  0  0  0  0
    2.8374   -1.4915  -13.3896 H   0  0  0  0  0  0  0  0  0  0  0  0
    2.8441    0.6159  -14.7281 H   0  0  0  0  0  0  0  0  0  0  0  0
    3.0703    0.9696  -13.0099 H   0  0  0  0  0  0  0  0  0  0  0  0
    4.4518    1.0114  -14.1072 H   0  0  0  0  0  0  0  0  0  0  0  0
    2.1341   -1.1001  -10.8656 H   0  0  0  0  0  0  0  0  0  0  0  0
    6.8520   -1.1523  -14.6013 H   0  0  0  0  0  0  0  0  0  0  0  0
    9.2148   -1.2742  -13.5034 H   0  0  0  0  0  0  0  0  0  0  0  0
  1  2  1  0  0  0  0
  2  3  1  0  0  0  0
  3  4  1  0  0  0  0
  4  5  2  0  0  0  0
  5  6  1  0  0  0  0
  6  7  1  0  0  0  0
  7  8  1  0  0  0  0
  6  9  1  0  0  0  0
  9 10  1  0  0  0  0
  5 11  1  0  0  0  0
 11 12  2  0  0  0  0
 12 13  1  0  0  0  0
 12 14  1  0  0  0  0
 14 15  2  0  0  0  0
 15 16  1  0  0  0  0
 16 17  2  0  0  0  0
 17 18  1  0  0  0  0
 18 19  1  0  0  0  0
 19 20  2  0  0  0  0
 20 21  1  0  0  0  0
 21 22  2  0  0  0  0
 22 23  1  0  0  0  0
 23 24  2  0  0  0  0
 24 25  1  0  0  0  0
 25 26  2  0  0  0  0
 26 27  1  0  0  0  0
 27 28  1  0  0  0  0
 28 29  2  0  0  0  0
 29 30  1  0  0  0  0
 30 31  2  0  0  0  0
 31 32  1  0  0  0  0
 32 33  1  0  0  0  0
 33 34  1  0  0  0  0
 34 35  1  0  0  0  0
 35 36  2  0  0  0  0
 36 37  1  0  0  0  0
 37 38  1  0  0  0  0
 38 39  1  0  0  0  0
 37 40  1  0  0  0  0
 40 41  1  0  0  0  0
 36 42  1  0  0  0  0
 42 43  2  0  0  0  0
 43 44  1  0  0  0  0
 43 45  1  0  0  0  0
 45 46  1  0  0  0  0
 46 47  1  0  0  0  0
 47 48  1  0  0  0  0
 48 49  2  0  0  0  0
 49 50  1  0  0  0  0
 50 51  1  0  0  0  0
 51 52  1  0  0  0  0
 50 53  1  0  0  0  0
 53 54  1  0  0  0  0
 49 55  1  0  0  0  0
 55 56  2  0  0  0  0
 56 57  1  0  0  0  0
 56 58  1  0  0  0  0
 58 59  1  0  0  0  0
 59 60  1  0  0  0  0
 60 61  1  0  0  0  0
 61 62  2  0  0  0  0
 62 63  1  0  0  0  0
 63 64  1  0  0  0  0
 64 65  1  0  0  0  0
 63 66  1  0  0  0  0
 66 67  1  0  0  0  0
 62 68  1  0  0  0  0
 68 69  2  0  0  0  0
 69 70  1  0  0  0  0
 10  1  2  0  0  0  0
 22 14  1  0  0  0  0
 31 23  1  0  0  0  0
 41 32  2  0  0  0  0
 54 45  2  0  0  0  0
 67 58  2  0  0  0  0
  9  3  2  0  0  0  0
 20 16  1  0  0  0  0
 29 25  1  0  0  0  0
 40 34  2  0  0  0  0
 53 47  2  0  0  0  0
 66 60  2  0  0  0  0
 13  4  1  0  0  0  0
 44 35  1  0  0  0  0
 57 48  1  0  0  0  0
 70 61  1  0  0  0  0
  1 71  1  0  0  0  0
  7 72  1  0  0  0  0
  7 73  1  0  0  0  0
  8 74  1  0  0  0  0
  8 75  1  0  0  0  0
  8 76  1  0  0  0  0
 10 77  1  0  0  0  0
 11 78  1  0  0  0  0
 17 79  1  0  0  0  0
 19 80  1  0  0  0  0
 26 81  1  0  0  0  0
 28 82  1  0  0  0  0
 38 83  1  0  0  0  0
 38 84  1  0  0  0  0
 39 85  1  0  0  0  0
 39 86  1  0  0  0  0
 39 87  1  0  0  0  0
 41 88  1  0  0  0  0
 42 89  1  0  0  0  0
 51 90  1  0  0  0  0
 51 91  1  0  0  0  0
 52 92  1  0  0  0  0
 52 93  1  0  0  0  0
 52 94  1  0  0  0  0
 54 95  1  0  0  0  0
 55 96  1  0  0  0  0
 64 97  1  0  0  0  0
 64 98  1  0  0  0  0
 65 99  1  0  0  0  0
 65100  1  0  0  0  0
 65101  1  0  0  0  0
 67102  1  0  0  0  0
 68103  1  0  0  0  0
 69104  1  0  0  0  0
M  END
