92

C          2.51160        0.91800        5.47350
S          0.96630        1.16760        4.80430
C          1.54700        0.85120        3.20420
C          2.90250        0.57340        3.22120
C          3.44840        0.60860        4.52870
C          4.88490        0.37400        4.89280
F          5.30230       -0.86940        4.64890
F          5.08860        0.59280        6.20250
F          5.71340        1.20890        4.24540
C          3.63560        0.26340        1.95480
F          4.88070       -0.15690        2.11920
F          3.69270        1.33760        1.13840
F          3.00330       -0.69040        1.22990
C          0.69480        0.88700        2.05680
C         -0.64650        0.78960        2.09690
C         -1.46120        0.80380        0.90960
S         -0.71340        1.63660       -0.48340
C         -2.12830        2.37020       -1.22490
C         -2.11540        3.57610       -1.85380
S         -3.64790        3.96190       -2.52960
C         -4.32480        2.50040       -1.93010
C         -3.40380        1.75220       -1.26590
S         -3.73950        0.17470       -0.56100
C         -2.66340        0.18880        0.84270
C         -3.24510       -0.60730        1.92290
S         -4.91130       -0.10490        2.26590
C         -5.02090       -0.47490        3.98300
C         -5.73830        0.26160        4.87310
S         -5.65470       -0.39590        6.45880
C         -4.62280       -1.66150        5.92560
C         -4.38080       -1.58420        4.59070
S         -3.40180       -2.73610        3.69150
C         -2.61950       -1.64200        2.52840
C         -1.28400       -2.08090        2.17230
S         -0.85540       -2.30510        0.51590
C          0.73620       -2.87120        0.91070
C          0.89280       -2.92090        2.28320
C         -0.24410       -2.45480        2.99640
C         -0.28800       -2.27220        4.48620
F         -1.12460       -1.27260        4.83820
F         -0.68830       -3.35320        5.15810
F          0.89850       -1.91150        4.99560
C          2.11970       -3.41730        2.99650
F          2.92060       -2.40700        3.38480
F          1.80700       -4.11030        4.09720
F          2.87730       -4.23180        2.25760
C          1.69840       -3.16390       -0.11590
C          1.49370       -3.07240       -1.43590
C          0.24990       -2.65710       -2.07660
S          0.06830       -1.01120       -2.56120
C         -1.52890       -1.29120       -3.16630
C         -1.88780       -2.61140       -2.99550
C         -0.86640       -3.39270       -2.39420
C         -0.98730       -4.85980       -2.09310
F         -2.00170       -5.11210       -1.24970
F         -1.17810       -5.59950       -3.18840
F          0.11030       -5.35170       -1.49980
C         -3.24710       -3.08220       -3.42540
F         -3.44210       -4.39100       -3.32620
F         -4.21330       -2.49730       -2.68240
F         -3.51360       -2.74540       -4.69720
C         -2.35340       -0.23670       -3.70190
C         -1.92310        0.87020       -4.32010
C         -0.54660        1.16680       -4.66830
S          0.14800        2.66680       -4.16700
C          1.67240        2.30020       -4.90600
C          1.62770        1.05940       -5.50660
C          0.35540        0.43170       -5.40250
C         -0.01070       -0.83660       -6.12180
F         -1.33260       -0.94100       -6.31920
F          0.35270       -1.94850       -5.45440
F          0.54590       -0.90510       -7.33350
C          2.80880        0.41870       -6.17750
F          2.90690        0.74670       -7.47510
F          3.97430        0.77850       -5.61370
F          2.77730       -0.91530       -6.10290
C          2.74950        3.25690       -4.86820
C          2.69660        4.39750       -4.18590
H          2.66720        1.00610        6.53040
H          1.18730        0.96090        1.09680
H         -1.15700        0.66540        3.04290
H         -1.28830        4.24600       -1.96490
H         -5.35410        2.26400       -2.10620
H         -6.32040        1.13880        4.67740
H         -4.26520       -2.40140        6.61190
H          2.67560       -3.46810        0.22080
H          2.31100       -3.28870       -2.11030
H         -3.41780       -0.36740       -3.56920
H         -2.64200        1.63110       -4.59070
H          3.62900        3.01210       -5.44380
H          1.83430        4.66790       -3.59800
H          3.51700        5.09170       -4.19470
