
  xtb     02282222163D
 energy: -247.379206784919 gnorm: 0.000335906376 xtb: 6.4.1 (unknown)
 92 99  0     0  0            999 V2000
    2.5116    0.9180    5.4735 C   0  0  0  0  0  0  0  0  0  0  0  0
    0.9663    1.1676    4.8043 S   0  0  0  0  0  0  0  0  0  0  0  0
    1.5470    0.8512    3.2042 C   0  0  0  0  0  0  0  0  0  0  0  0
    2.9025    0.5734    3.2212 C   0  0  0  0  0  0  0  0  0  0  0  0
    3.4484    0.6086    4.5287 C   0  0  0  0  0  0  0  0  0  0  0  0
    4.8849    0.3740    4.8928 C   0  0  0  0  0  0  0  0  0  0  0  0
    5.3023   -0.8694    4.6489 F   0  0  0  0  0  0  0  0  0  0  0  0
    5.0886    0.5928    6.2025 F   0  0  0  0  0  0  0  0  0  0  0  0
    5.7134    1.2089    4.2454 F   0  0  0  0  0  0  0  0  0  0  0  0
    3.6356    0.2634    1.9548 C   0  0  0  0  0  0  0  0  0  0  0  0
    4.8807   -0.1569    2.1192 F   0  0  0  0  0  0  0  0  0  0  0  0
    3.6927    1.3376    1.1384 F   0  0  0  0  0  0  0  0  0  0  0  0
    3.0033   -0.6904    1.2299 F   0  0  0  0  0  0  0  0  0  0  0  0
    0.6948    0.8870    2.0568 C   0  0  0  0  0  0  0  0  0  0  0  0
   -0.6465    0.7896    2.0969 C   0  0  0  0  0  0  0  0  0  0  0  0
   -1.4612    0.8038    0.9096 C   0  0  0  0  0  0  0  0  0  0  0  0
   -0.7134    1.6366   -0.4834 S   0  0  0  0  0  3  0  0  0  0  0  0
   -2.1283    2.3702   -1.2249 C   0  0  0  0  0  0  0  0  0  0  0  0
   -2.1154    3.5761   -1.8538 C   0  0  0  0  0  0  0  0  0  0  0  0
   -3.6479    3.9619   -2.5296 S   0  0  0  0  0  0  0  0  0  0  0  0
   -4.3248    2.5004   -1.9301 C   0  0  0  0  0  0  0  0  0  0  0  0
   -3.4038    1.7522   -1.2659 C   0  0  0  0  0  0  0  0  0  0  0  0
   -3.7395    0.1747   -0.5610 S   0  0  0  0  0  3  0  0  0  0  0  0
   -2.6634    0.1888    0.8427 C   0  0  0  0  0  0  0  0  0  0  0  0
   -3.2451   -0.6073    1.9229 C   0  0  0  0  0  0  0  0  0  0  0  0
   -4.9113   -0.1049    2.2659 S   0  0  0  0  0  3  0  0  0  0  0  0
   -5.0209   -0.4749    3.9830 C   0  0  0  0  0  0  0  0  0  0  0  0
   -5.7383    0.2616    4.8731 C   0  0  0  0  0  0  0  0  0  0  0  0
   -5.6547   -0.3959    6.4588 S   0  0  0  0  0  0  0  0  0  0  0  0
   -4.6228   -1.6615    5.9256 C   0  0  0  0  0  0  0  0  0  0  0  0
   -4.3808   -1.5842    4.5907 C   0  0  0  0  0  0  0  0  0  0  0  0
   -3.4018   -2.7361    3.6915 S   0  0  0  0  0  3  0  0  0  0  0  0
   -2.6195   -1.6420    2.5284 C   0  0  0  0  0  0  0  0  0  0  0  0
   -1.2840   -2.0809    2.1723 C   0  0  0  0  0  0  0  0  0  0  0  0
   -0.8554   -2.3051    0.5159 S   0  0  0  0  0  0  0  0  0  0  0  0
    0.7362   -2.8712    0.9107 C   0  0  0  0  0  0  0  0  0  0  0  0
    0.8928   -2.9209    2.2832 C   0  0  0  0  0  0  0  0  0  0  0  0
   -0.2441   -2.4548    2.9964 C   0  0  0  0  0  0  0  0  0  0  0  0
   -0.2880   -2.2722    4.4862 C   0  0  0  0  0  0  0  0  0  0  0  0
   -1.1246   -1.2726    4.8382 F   0  0  0  0  0  0  0  0  0  0  0  0
   -0.6883   -3.3532    5.1581 F   0  0  0  0  0  0  0  0  0  0  0  0
    0.8985   -1.9115    4.9956 F   0  0  0  0  0  0  0  0  0  0  0  0
    2.1197   -3.4173    2.9965 C   0  0  0  0  0  0  0  0  0  0  0  0
    2.9206   -2.4070    3.3848 F   0  0  0  0  0  0  0  0  0  0  0  0
    1.8070   -4.1103    4.0972 F   0  0  0  0  0  0  0  0  0  0  0  0
    2.8773   -4.2318    2.2576 F   0  0  0  0  0  0  0  0  0  0  0  0
    1.6984   -3.1639   -0.1159 C   0  0  0  0  0  0  0  0  0  0  0  0
    1.4937   -3.0724   -1.4359 C   0  0  0  0  0  0  0  0  0  0  0  0
    0.2499   -2.6571   -2.0766 C   0  0  0  0  0  0  0  0  0  0  0  0
    0.0683   -1.0112   -2.5612 S   0  0  0  0  0  0  0  0  0  0  0  0
   -1.5289   -1.2912   -3.1663 C   0  0  0  0  0  0  0  0  0  0  0  0
   -1.8878   -2.6114   -2.9955 C   0  0  0  0  0  0  0  0  0  0  0  0
   -0.8664   -3.3927   -2.3942 C   0  0  0  0  0  0  0  0  0  0  0  0
   -0.9873   -4.8598   -2.0931 C   0  0  0  0  0  0  0  0  0  0  0  0
   -2.0017   -5.1121   -1.2497 F   0  0  0  0  0  0  0  0  0  0  0  0
   -1.1781   -5.5995   -3.1884 F   0  0  0  0  0  0  0  0  0  0  0  0
    0.1103   -5.3517   -1.4998 F   0  0  0  0  0  0  0  0  0  0  0  0
   -3.2471   -3.0822   -3.4254 C   0  0  0  0  0  0  0  0  0  0  0  0
   -3.4421   -4.3910   -3.3262 F   0  0  0  0  0  0  0  0  0  0  0  0
   -4.2133   -2.4973   -2.6824 F   0  0  0  0  0  0  0  0  0  0  0  0
   -3.5136   -2.7454   -4.6972 F   0  0  0  0  0  0  0  0  0  0  0  0
   -2.3534   -0.2367   -3.7019 C   0  0  0  0  0  0  0  0  0  0  0  0
   -1.9231    0.8702   -4.3201 C   0  0  0  0  0  0  0  0  0  0  0  0
   -0.5466    1.1668   -4.6683 C   0  0  0  0  0  0  0  0  0  0  0  0
    0.1480    2.6668   -4.1670 S   0  0  0  0  0  0  0  0  0  0  0  0
    1.6724    2.3002   -4.9060 C   0  0  0  0  0  0  0  0  0  0  0  0
    1.6277    1.0594   -5.5066 C   0  0  0  0  0  0  0  0  0  0  0  0
    0.3554    0.4317   -5.4025 C   0  0  0  0  0  0  0  0  0  0  0  0
   -0.0107   -0.8366   -6.1218 C   0  0  0  0  0  0  0  0  0  0  0  0
   -1.3326   -0.9410   -6.3192 F   0  0  0  0  0  0  0  0  0  0  0  0
    0.3527   -1.9485   -5.4544 F   0  0  0  0  0  0  0  0  0  0  0  0
    0.5459   -0.9051   -7.3335 F   0  0  0  0  0  0  0  0  0  0  0  0
    2.8088    0.4187   -6.1775 C   0  0  0  0  0  0  0  0  0  0  0  0
    2.9069    0.7467   -7.4751 F   0  0  0  0  0  0  0  0  0  0  0  0
    3.9743    0.7785   -5.6137 F   0  0  0  0  0  0  0  0  0  0  0  0
    2.7773   -0.9153   -6.1029 F   0  0  0  0  0  0  0  0  0  0  0  0
    2.7495    3.2569   -4.8682 C   0  0  0  0  0  0  0  0  0  0  0  0
    2.6966    4.3975   -4.1859 C   0  0  0  0  0  0  0  0  0  0  0  0
    2.6672    1.0061    6.5304 H   0  0  0  0  0  0  0  0  0  0  0  0
    1.1873    0.9609    1.0968 H   0  0  0  0  0  0  0  0  0  0  0  0
   -1.1570    0.6654    3.0429 H   0  0  0  0  0  0  0  0  0  0  0  0
   -1.2883    4.2460   -1.9649 H   0  0  0  0  0  0  0  0  0  0  0  0
   -5.3541    2.2640   -2.1062 H   0  0  0  0  0  0  0  0  0  0  0  0
   -6.3204    1.1388    4.6774 H   0  0  0  0  0  0  0  0  0  0  0  0
   -4.2652   -2.4014    6.6119 H   0  0  0  0  0  0  0  0  0  0  0  0
    2.6756   -3.4681    0.2208 H   0  0  0  0  0  0  0  0  0  0  0  0
    2.3110   -3.2887   -2.1103 H   0  0  0  0  0  0  0  0  0  0  0  0
   -3.4178   -0.3674   -3.5692 H   0  0  0  0  0  0  0  0  0  0  0  0
   -2.6420    1.6311   -4.5907 H   0  0  0  0  0  0  0  0  0  0  0  0
    3.6290    3.0121   -5.4438 H   0  0  0  0  0  0  0  0  0  0  0  0
    1.8343    4.6679   -3.5980 H   0  0  0  0  0  0  0  0  0  0  0  0
    3.5170    5.0917   -4.1947 H   0  0  0  0  0  0  0  0  0  0  0  0
  1  2  1  0  0  0  0
  2  3  1  0  0  0  0
  3  4  2  0  0  0  0
  4  5  1  0  0  0  0
  5  6  1  0  0  0  0
  6  7  1  0  0  0  0
  6  8  1  0  0  0  0
  6  9  1  0  0  0  0
  4 10  1  0  0  0  0
 10 11  1  0  0  0  0
 10 12  1  0  0  0  0
 10 13  1  0  0  0  0
  3 14  1  0  0  0  0
 14 15  2  0  0  0  0
 15 16  1  0  0  0  0
 16 17  2  0  0  0  0
 17 18  1  0  0  0  0
 18 19  2  0  0  0  0
 19 20  1  0  0  0  0
 20 21  1  0  0  0  0
 21 22  2  0  0  0  0
 22 23  1  0  0  0  0
 23 24  2  0  0  0  0
 24 25  1  0  0  0  0
 25 26  2  0  0  0  0
 26 27  1  0  0  0  0
 27 28  2  0  0  0  0
 28 29  1  0  0  0  0
 29 30  1  0  0  0  0
 30 31  2  0  0  0  0
 31 32  1  0  0  0  0
 32 33  2  0  0  0  0
 33 34  1  0  0  0  0
 34 35  1  0  0  0  0
 35 36  1  0  0  0  0
 36 37  2  0  0  0  0
 37 38  1  0  0  0  0
 38 39  1  0  0  0  0
 39 40  1  0  0  0  0
 39 41  1  0  0  0  0
 39 42  1  0  0  0  0
 37 43  1  0  0  0  0
 43 44  1  0  0  0  0
 43 45  1  0  0  0  0
 43 46  1  0  0  0  0
 36 47  1  0  0  0  0
 47 48  2  0  0  0  0
 48 49  1  0  0  0  0
 49 50  1  0  0  0  0
 50 51  1  0  0  0  0
 51 52  2  0  0  0  0
 52 53  1  0  0  0  0
 53 54  1  0  0  0  0
 54 55  1  0  0  0  0
 54 56  1  0  0  0  0
 54 57  1  0  0  0  0
 52 58  1  0  0  0  0
 58 59  1  0  0  0  0
 58 60  1  0  0  0  0
 58 61  1  0  0  0  0
 51 62  1  0  0  0  0
 62 63  2  0  0  0  0
 63 64  1  0  0  0  0
 64 65  1  0  0  0  0
 65 66  1  0  0  0  0
 66 67  2  0  0  0  0
 67 68  1  0  0  0  0
 68 69  1  0  0  0  0
 69 70  1  0  0  0  0
 69 71  1  0  0  0  0
 69 72  1  0  0  0  0
 67 73  1  0  0  0  0
 73 74  1  0  0  0  0
 73 75  1  0  0  0  0
 73 76  1  0  0  0  0
 66 77  1  0  0  0  0
 77 78  2  0  0  0  0
  5  1  2  0  0  0  0
 24 16  1  0  0  0  0
 33 25  1  0  0  0  0
 38 34  2  0  0  0  0
 53 49  2  0  0  0  0
 68 64  2  0  0  0  0
 22 18  1  0  0  0  0
 31 27  1  0  0  0  0
  1 79  1  0  0  0  0
 14 80  1  0  0  0  0
 15 81  1  0  0  0  0
 19 82  1  0  0  0  0
 21 83  1  0  0  0  0
 28 84  1  0  0  0  0
 30 85  1  0  0  0  0
 47 86  1  0  0  0  0
 48 87  1  0  0  0  0
 62 88  1  0  0  0  0
 63 89  1  0  0  0  0
 77 90  1  0  0  0  0
 78 91  1  0  0  0  0
 78 92  1  0  0  0  0
M  END
