140

C          5.77970        2.57130       -0.45390
C          4.71160        1.96110        0.18060
C          4.66920        0.58630        0.43530
C          5.77900       -0.15850        0.01180
C          6.86370        0.45070       -0.64510
C          6.85990        1.82240       -0.87350
C          7.88040       -0.49290       -1.03230
C          7.55100       -1.80300       -0.65990
S          6.02050       -1.88480        0.17420
C          8.37640       -2.87540       -0.95170
C          9.55370       -2.62930       -1.62990
C          9.89970       -1.33460       -2.00510
C          9.07440       -0.26920       -1.71090
C          3.47420        0.06260        1.06150
C          3.21630       -1.20530        1.41000
C          1.96170       -1.71300        1.92820
C          0.88150       -0.89020        2.26680
C         -0.33780       -1.40030        2.69760
C         -0.45300       -2.79340        2.77460
C          0.61870       -3.64360        2.46550
C          1.82360       -3.09450        2.05560
C          0.27020       -5.03270        2.62220
C         -1.06090       -5.19710        3.03660
S         -1.89200       -3.67040        3.23830
C         -1.60720       -6.45190        3.24740
C         -0.80710       -7.55910        3.04030
C          0.51410       -7.41470        2.62750
C          1.05510       -6.16290        2.41690
C         -1.44710       -0.56660        3.11440
C         -1.61670        0.73030        2.82740
C         -2.69970        1.55640        3.33300
C         -3.05310        2.71980        2.63890
C         -4.06040        3.56700        3.07740
C         -4.69250        3.24470        4.27720
C         -4.36390        2.08240        4.99410
C         -3.37220        1.24120        4.51160
C         -5.15470        1.95210        6.19220
C         -6.05940        3.01550        6.34480
S         -5.96240        4.17580        5.03710
C         -6.91640        3.08980        7.43000
C         -6.86750        2.08420        8.37620
C         -5.97820        1.02260        8.24010
C         -5.12520        0.95070        7.15800
C         -4.43670        4.77070        2.33520
C         -4.70290        4.81330        1.02890
C         -4.78140        3.65860        0.13500
C         -5.33770        2.45080        0.56990
C         -5.42320        1.33690       -0.25160
C         -5.01690        1.48780       -1.58000
C         -4.41690        2.67520       -2.03130
C         -4.30740        3.75750       -1.16690
C         -3.96540        2.56620       -3.39560
C         -4.29660        1.32350       -3.95950
S         -5.18150        0.30070       -2.85410
C         -3.91690        0.98280       -5.24670
C         -3.19480        1.90210       -5.98250
C         -2.86700        3.14280       -5.44420
C         -3.24730        3.47950       -4.16130
C         -5.84630        0.04950        0.31560
C         -5.13000       -1.07190        0.21460
C         -3.86680       -1.12800       -0.52550
C         -2.90360       -0.13260       -0.34310
C         -1.81810        0.01310       -1.19520
C         -1.75020       -0.85020       -2.29310
C         -2.64700       -1.92100       -2.43510
C         -3.68850       -2.07320       -1.52560
C         -2.40010       -2.67660       -3.63580
C         -1.35280       -2.12840       -4.39350
S         -0.64330       -0.71940       -3.64060
C         -0.96670       -2.68160       -5.60300
C         -1.63830       -3.79880       -6.06010
C         -2.67880       -4.35450       -5.32130
C         -3.06250       -3.80170       -4.11700
C         -0.86200        1.09270       -0.95770
C          0.47110        1.02560       -1.02720
C          1.28370       -0.15340       -1.29900
C          0.86230       -1.43530       -0.93680
C          1.59630       -2.57270       -1.24220
C          2.82200       -2.38280       -1.88610
C          3.28460       -1.10500       -2.23750
C          2.50910        0.00560       -1.93700
C          4.56310       -1.15420       -2.89940
C          5.03780       -2.46930       -3.02930
S          3.93550       -3.64680       -2.35360
C          6.25160       -2.74780       -3.63460
C          6.99920       -1.69430       -4.12340
C          6.54360       -0.38530       -4.00420
C          5.33620       -0.10960       -3.39620
C          1.12950       -3.91670       -0.93210
C         -0.12250       -4.25800       -0.65490
H          5.76150        3.63750       -0.62510
H          3.87180        2.56530        0.49340
H          7.69310        2.28620       -1.37810
H          8.09790       -3.87490       -0.65550
H         10.21250       -3.45000       -1.87140
H         10.82570       -1.16440       -2.53400
H          9.34790        0.73270       -2.00530
H          2.71260        0.81370        1.22400
H          3.96720       -1.96670        1.26390
H          0.99590        0.17990        2.21260
H          2.65390       -3.74130        1.81640
H         -2.63270       -6.55520        3.56680
H         -1.21240       -8.54680        3.20100
H          1.12090       -8.29410        2.47150
H          2.07930       -6.05250        2.09510
H         -2.19490       -1.08250        3.70380
H         -0.92720        1.22800        2.15770
H         -2.53070        2.96970        1.72640
H         -3.10450        0.36020        5.07270
H         -7.60350        3.91610        7.52760
H         -7.52710        2.12370        9.22990
H         -5.95710        0.24720        8.99130
H         -4.43650        0.12590        7.05480
H         -4.49590        5.67720        2.92510
H         -4.89580        5.77200        0.56390
H         -5.69600        2.36980        1.58480
H         -3.84740        4.67380       -1.50700
H         -4.17220        0.01580       -5.65240
H         -2.87890        1.65280       -6.98420
H         -2.30280        3.84680       -6.03760
H         -2.98400        4.44080       -3.74600
H         -6.76570        0.05780        0.88600
H         -5.50550       -1.99670        0.63090
H         -3.01080        0.54980        0.48670
H         -4.41130       -2.86340       -1.66010
H         -0.15920       -2.24330       -6.16880
H         -1.35310       -4.24480       -7.00110
H         -3.19100       -5.22730       -5.69810
H         -3.87090       -4.23410       -3.54710
H         -1.32140        2.03740       -0.68900
H          1.03450        1.94100       -0.88730
H         -0.05660       -1.54550       -0.38480
H          2.85270        0.99080       -2.21520
H          6.59930       -3.76560       -3.71900
H          7.94920       -1.88960       -4.59730
H          7.14530        0.42360       -4.39070
H          4.98810        0.90770       -3.29940
H          1.89300       -4.68390       -0.98240
H         -0.39210       -5.28000       -0.45050
H         -0.92640       -3.54150       -0.62470
