
  xtb     03082204423D
 energy: -414.128329668104 gnorm: 0.000536904294 xtb: 6.4.1 (unknown)
234255  0     0  0            999 V2000
    5.5180   -0.3422    0.8284 C   0  0  0  0  0  0  0  0  0  0  0  0
    5.1525   -0.0382    2.0882 C   0  0  0  0  0  0  0  0  0  0  0  0
    3.7957   -0.3796    2.3742 C   0  0  0  0  0  0  0  0  0  0  0  0
    3.0850   -0.1353    3.5586 C   0  0  0  0  0  0  0  0  0  0  0  0
    3.7467    0.4743    4.7190 C   0  0  0  0  0  0  0  0  0  0  0  0
    4.9402   -0.0545    5.2078 C   0  0  0  0  0  0  0  0  0  0  0  0
    5.6057    0.5585    6.2470 C   0  0  0  0  0  0  0  0  0  0  0  0
    5.1119    1.7209    6.8307 C   0  0  0  0  0  0  0  0  0  0  0  0
    6.0608    2.4747    8.1225 S   0  0  0  0  0  0  0  0  0  0  0  0
    6.1090    4.2243    7.5839 C   0  0  0  0  0  0  0  0  0  0  0  0
    6.7914    4.3786    6.2394 C   0  0  0  0  0  0  0  0  0  0  0  0
    3.8844    2.1964    6.3818 C   0  0  0  0  0  0  0  0  0  0  0  0
    3.3252    3.2861    6.9463 F   0  0  0  0  0  0  0  0  0  0  0  0
    3.2055    1.5940    5.3410 C   0  0  0  0  0  0  0  0  0  0  0  0
    1.7461   -0.4967    3.5714 C   0  0  0  0  0  0  0  0  0  0  0  0
    1.1082   -1.1132    2.4651 C   0  0  0  0  0  0  0  0  0  0  0  0
    1.8013   -1.3024    1.2516 C   0  0  0  0  0  0  0  0  0  0  0  0
    1.0958   -1.7853    0.0634 C   0  0  0  0  0  0  0  0  0  0  0  0
   -0.2098   -1.3583   -0.1958 C   0  0  0  0  0  0  0  0  0  0  0  0
   -0.9158   -1.8572   -1.2634 C   0  0  0  0  0  0  0  0  0  0  0  0
   -0.3445   -2.7456   -2.1768 C   0  0  0  0  0  0  0  0  0  0  0  0
   -1.3843   -3.2276   -3.5131 S   0  0  0  0  0  0  0  0  0  0  0  0
   -0.6372   -4.7512   -4.2139 C   0  0  0  0  0  0  0  0  0  0  0  0
   -1.6049   -5.3393   -5.2212 C   0  0  0  0  0  0  0  0  0  0  0  0
    0.9780   -3.1105   -1.9461 C   0  0  0  0  0  0  0  0  0  0  0  0
    1.6779   -2.6686   -0.8399 C   0  0  0  0  0  0  0  0  0  0  0  0
    1.6377   -3.9340   -2.7928 F   0  0  0  0  0  0  0  0  0  0  0  0
    3.1473   -0.9515    1.2516 C   0  0  0  0  0  0  0  0  0  0  0  0
    4.2471   -1.0535   -0.1064 S   0  0  0  0  0  0  0  0  0  0  0  0
   -0.2149   -1.5044    2.7889 C   0  0  0  0  0  0  0  0  0  0  0  0
   -0.5946   -1.1488    4.0506 C   0  0  0  0  0  0  0  0  0  0  0  0
    0.6664   -0.3239    4.9307 S   0  0  0  0  0  0  0  0  0  0  0  0
   -1.8509   -1.3812    4.6735 C   0  0  0  0  0  0  0  0  0  0  0  0
   -3.1108   -2.3328    3.8789 S   0  0  0  0  0  0  0  0  0  0  0  0
   -4.1118   -2.1070    5.2863 C   0  0  0  0  0  0  0  0  0  0  0  0
   -3.4249   -1.3209    6.2067 C   0  0  0  0  0  0  0  0  0  0  0  0
   -2.1904   -0.9415    5.8389 N   0  0  0  0  0  0  0  0  0  0  0  0
   -3.9845   -0.8500    7.4947 C   0  0  0  0  0  0  0  0  0  0  0  0
   -4.8878   -1.3838    8.0886 O   0  0  0  0  0  0  0  0  0  0  0  0
   -3.3487    0.2422    7.9084 O   0  0  0  0  0  0  0  0  0  0  0  0
   -3.8314    0.8267    9.1075 C   0  0  0  0  0  0  0  0  0  0  0  0
   -5.4518   -2.5676    5.3733 C   0  0  0  0  0  0  0  0  0  0  0  0
   -6.1076   -3.1451    4.3433 C   0  0  0  0  0  0  0  0  0  0  0  0
   -7.5134   -3.3670    4.3429 C   0  0  0  0  0  0  0  0  0  0  0  0
   -8.3238   -3.6558    2.7859 S   0  0  0  0  0  0  0  0  0  0  0  0
   -9.8461   -3.4424    3.5816 C   0  0  0  0  0  0  0  0  0  0  0  0
   -9.6266   -3.2740    4.9425 C   0  0  0  0  0  0  0  0  0  0  0  0
   -8.3368   -3.2188    5.3220 N   0  0  0  0  0  0  0  0  0  0  0  0
  -10.7112   -3.1065    5.9276 C   0  0  0  0  0  0  0  0  0  0  0  0
  -11.8886   -3.0903    5.6481 O   0  0  0  0  0  0  0  0  0  0  0  0
  -10.2361   -2.9884    7.1636 O   0  0  0  0  0  0  0  0  0  0  0  0
  -11.1997   -2.8190    8.1899 C   0  0  0  0  0  0  0  0  0  0  0  0
  -11.1011   -3.3933    2.8729 C   0  0  0  0  0  0  0  0  0  0  0  0
  -11.2838   -2.7485    1.7108 C   0  0  0  0  0  0  0  0  0  0  0  0
  -10.2543   -1.9592    1.0612 C   0  0  0  0  0  0  0  0  0  0  0  0
   -9.7993   -2.0589   -0.2138 C   0  0  0  0  0  0  0  0  0  0  0  0
   -8.6311   -1.2862   -0.4667 C   0  0  0  0  0  0  0  0  0  0  0  0
   -7.8579   -1.2660   -1.6391 C   0  0  0  0  0  0  0  0  0  0  0  0
   -8.3093   -1.9239   -2.8709 C   0  0  0  0  0  0  0  0  0  0  0  0
   -9.5924   -1.6952   -3.3669 C   0  0  0  0  0  0  0  0  0  0  0  0
  -10.0090   -2.2882   -4.5393 C   0  0  0  0  0  0  0  0  0  0  0  0
   -9.1659   -3.1246   -5.2686 C   0  0  0  0  0  0  0  0  0  0  0  0
   -9.7865   -3.7830   -6.7897 S   0  0  0  0  0  0  0  0  0  0  0  0
   -9.1889   -5.5146   -6.7953 C   0  0  0  0  0  0  0  0  0  0  0  0
   -9.6650   -6.2824   -5.5788 C   0  0  0  0  0  0  0  0  0  0  0  0
   -7.8819   -3.3269   -4.7731 C   0  0  0  0  0  0  0  0  0  0  0  0
   -6.9949   -4.0968   -5.4434 F   0  0  0  0  0  0  0  0  0  0  0  0
   -7.4579   -2.7562   -3.5906 C   0  0  0  0  0  0  0  0  0  0  0  0
   -6.6466   -0.5937   -1.5677 C   0  0  0  0  0  0  0  0  0  0  0  0
   -6.2083    0.0773   -0.3999 C   0  0  0  0  0  0  0  0  0  0  0  0
   -7.0141    0.1250    0.7525 C   0  0  0  0  0  0  0  0  0  0  0  0
   -6.5232    0.8100    1.9545 C   0  0  0  0  0  0  0  0  0  0  0  0
   -5.8946    2.0538    1.8634 C   0  0  0  0  0  0  0  0  0  0  0  0
   -5.2881    2.6348    2.9583 C   0  0  0  0  0  0  0  0  0  0  0  0
   -5.3100    2.0091    4.2005 C   0  0  0  0  0  0  0  0  0  0  0  0
   -4.5337    2.6403    5.6532 S   0  0  0  0  0  0  0  0  0  0  0  0
   -3.0139    3.4162    4.9988 C   0  0  0  0  0  0  0  0  0  0  0  0
   -2.0736    2.3958    4.3893 C   0  0  0  0  0  0  0  0  0  0  0  0
   -6.0278    0.8183    4.3010 C   0  0  0  0  0  0  0  0  0  0  0  0
   -6.6058    0.2088    3.2094 C   0  0  0  0  0  0  0  0  0  0  0  0
   -6.1357    0.2245    5.5054 F   0  0  0  0  0  0  0  0  0  0  0  0
   -8.2098   -0.5766    0.6865 C   0  0  0  0  0  0  0  0  0  0  0  0
   -9.3529   -0.7707    1.9878 S   0  0  0  0  0  0  0  0  0  0  0  0
   -4.8954    0.5831   -0.5531 C   0  0  0  0  0  0  0  0  0  0  0  0
   -4.3583    0.3653   -1.7856 C   0  0  0  0  0  0  0  0  0  0  0  0
   -5.4573   -0.4877   -2.8464 S   0  0  0  0  0  0  0  0  0  0  0  0
   -3.0248    0.6900   -2.1668 C   0  0  0  0  0  0  0  0  0  0  0  0
   -2.3123    0.2986   -3.2589 C   0  0  0  0  0  0  0  0  0  0  0  0
   -0.9443    0.6793   -3.2100 C   0  0  0  0  0  0  0  0  0  0  0  0
    0.0868    0.3108   -4.0945 C   0  0  0  0  0  0  0  0  0  0  0  0
   -0.2159   -0.4607   -5.3022 C   0  0  0  0  0  0  0  0  0  0  0  0
   -1.2938   -0.1126   -6.1139 C   0  0  0  0  0  0  0  0  0  0  0  0
   -1.6614   -0.8929   -7.1907 C   0  0  0  0  0  0  0  0  0  0  0  0
   -0.9611   -2.0534   -7.5003 C   0  0  0  0  0  0  0  0  0  0  0  0
   -1.3859   -3.1655   -8.8011 S   0  0  0  0  0  0  0  0  0  0  0  0
   -3.1717   -2.8624   -9.0484 C   0  0  0  0  0  0  0  0  0  0  0  0
   -3.9992   -3.2494   -7.8380 C   0  0  0  0  0  0  0  0  0  0  0  0
    0.1631   -2.3471   -6.7288 C   0  0  0  0  0  0  0  0  0  0  0  0
    0.8975   -3.4390   -7.0295 F   0  0  0  0  0  0  0  0  0  0  0  0
    0.5359   -1.5825   -5.6465 C   0  0  0  0  0  0  0  0  0  0  0  0
    1.3750    0.6730   -3.7258 C   0  0  0  0  0  0  0  0  0  0  0  0
    1.6643    1.4103   -2.5503 C   0  0  0  0  0  0  0  0  0  0  0  0
    0.6385    1.7803   -1.6641 C   0  0  0  0  0  0  0  0  0  0  0  0
    0.9159    2.4521   -0.3913 C   0  0  0  0  0  0  0  0  0  0  0  0
    1.9894    2.0507    0.4024 C   0  0  0  0  0  0  0  0  0  0  0  0
    2.2663    2.6655    1.6044 C   0  0  0  0  0  0  0  0  0  0  0  0
    1.4676    3.7013    2.0750 C   0  0  0  0  0  0  0  0  0  0  0  0
    1.7485    4.5255    3.6112 S   0  0  0  0  0  0  0  0  0  0  0  0
    3.5736    4.5696    3.7097 C   0  0  0  0  0  0  0  0  0  0  0  0
    4.1900    5.3685    2.5807 C   0  0  0  0  0  0  0  0  0  0  0  0
    0.3729    4.0709    1.2949 C   0  0  0  0  0  0  0  0  0  0  0  0
    0.0996    3.4789    0.0806 C   0  0  0  0  0  0  0  0  0  0  0  0
   -0.4451    5.0519    1.7260 F   0  0  0  0  0  0  0  0  0  0  0  0
   -0.6436    1.4024   -2.0296 C   0  0  0  0  0  0  0  0  0  0  0  0
   -2.0571    1.6178   -1.0373 S   0  0  0  0  0  0  0  0  0  0  0  0
    3.0470    1.6760   -2.4259 C   0  0  0  0  0  0  0  0  0  0  0  0
    3.8063    1.1384   -3.4208 C   0  0  0  0  0  0  0  0  0  0  0  0
    2.8357    0.3125   -4.6174 S   0  0  0  0  0  0  0  0  0  0  0  0
    5.2325    1.1408   -3.4432 C   0  0  0  0  0  0  0  0  0  0  0  0
    6.1158    0.8186   -4.4253 C   0  0  0  0  0  0  0  0  0  0  0  0
    7.4751    0.8907   -4.0103 C   0  0  0  0  0  0  0  0  0  0  0  0
    8.6295    0.6135   -4.7587 C   0  0  0  0  0  0  0  0  0  0  0  0
    8.5355    0.1167   -6.1360 C   0  0  0  0  0  0  0  0  0  0  0  0
    7.7202   -0.9723   -6.4341 C   0  0  0  0  0  0  0  0  0  0  0  0
    7.6132   -1.4557   -7.7230 C   0  0  0  0  0  0  0  0  0  0  0  0
    8.3093   -0.8569   -8.7673 C   0  0  0  0  0  0  0  0  0  0  0  0
    8.2589   -1.3661  -10.4518 S   0  0  0  0  0  0  0  0  0  0  0  0
    6.8104   -2.4754  -10.5408 C   0  0  0  0  0  0  0  0  0  0  0  0
    5.4983   -1.7301  -10.3862 C   0  0  0  0  0  0  0  0  0  0  0  0
    9.1376    0.2220   -8.4502 C   0  0  0  0  0  0  0  0  0  0  0  0
    9.8364    0.8203   -9.4349 F   0  0  0  0  0  0  0  0  0  0  0  0
    9.2618    0.7069   -7.1677 C   0  0  0  0  0  0  0  0  0  0  0  0
    9.8471    0.7968   -4.1148 C   0  0  0  0  0  0  0  0  0  0  0  0
    9.9595    1.1463   -2.7465 C   0  0  0  0  0  0  0  0  0  0  0  0
    8.8056    1.3665   -1.9806 C   0  0  0  0  0  0  0  0  0  0  0  0
    8.8181    1.5283   -0.5216 C   0  0  0  0  0  0  0  0  0  0  0  0
    9.5396    0.6425    0.2754 C   0  0  0  0  0  0  0  0  0  0  0  0
    9.4195    0.6501    1.6522 C   0  0  0  0  0  0  0  0  0  0  0  0
    8.5573    1.5370    2.2865 C   0  0  0  0  0  0  0  0  0  0  0  0
    8.2195    1.6011    4.0162 S   0  0  0  0  0  0  0  0  0  0  0  0
    9.2640    0.2878    4.7325 C   0  0  0  0  0  0  0  0  0  0  0  0
    8.6956   -1.1040    4.5244 C   0  0  0  0  0  0  0  0  0  0  0  0
    7.8783    2.4519    1.4801 C   0  0  0  0  0  0  0  0  0  0  0  0
    8.0017    2.4671    0.1103 C   0  0  0  0  0  0  0  0  0  0  0  0
    7.0530    3.3462    2.0676 F   0  0  0  0  0  0  0  0  0  0  0  0
    7.5948    1.2883   -2.6567 C   0  0  0  0  0  0  0  0  0  0  0  0
    6.0335    1.5661   -1.9431 S   0  0  0  0  0  0  0  0  0  0  0  0
   11.3228    1.2357   -2.3372 C   0  0  0  0  0  0  0  0  0  0  0  0
   12.1885    0.9506   -3.3311 C   0  0  0  0  0  0  0  0  0  0  0  0
   11.4204    0.5520   -4.8285 S   0  0  0  0  0  0  0  0  0  0  0  0
    6.4727   -0.1912    0.3637 H   0  0  0  0  0  0  0  0  0  0  0  0
    5.8038    0.4336    2.8010 H   0  0  0  0  0  0  0  0  0  0  0  0
    5.3349   -0.9574    4.7666 H   0  0  0  0  0  0  0  0  0  0  0  0
    6.5326    0.1572    6.6257 H   0  0  0  0  0  0  0  0  0  0  0  0
    5.0945    4.6163    7.5777 H   0  0  0  0  0  0  0  0  0  0  0  0
    6.6743    4.7202    8.3726 H   0  0  0  0  0  0  0  0  0  0  0  0
    6.8402    5.4319    5.9706 H   0  0  0  0  0  0  0  0  0  0  0  0
    7.8032    3.9816    6.2763 H   0  0  0  0  0  0  0  0  0  0  0  0
    6.2492    3.8481    5.4588 H   0  0  0  0  0  0  0  0  0  0  0  0
    2.2654    2.0155    5.0199 H   0  0  0  0  0  0  0  0  0  0  0  0
   -0.6680   -0.6192    0.4422 H   0  0  0  0  0  0  0  0  0  0  0  0
   -1.9424   -1.5676   -1.4198 H   0  0  0  0  0  0  0  0  0  0  0  0
   -0.4591   -5.4351   -3.3850 H   0  0  0  0  0  0  0  0  0  0  0  0
    0.3053   -4.4925   -4.6907 H   0  0  0  0  0  0  0  0  0  0  0  0
   -2.5686   -5.5433   -4.7591 H   0  0  0  0  0  0  0  0  0  0  0  0
   -1.1980   -6.2674   -5.6156 H   0  0  0  0  0  0  0  0  0  0  0  0
   -1.7547   -4.6504   -6.0486 H   0  0  0  0  0  0  0  0  0  0  0  0
    2.6784   -3.0435   -0.6943 H   0  0  0  0  0  0  0  0  0  0  0  0
   -0.8589   -2.0631    2.1341 H   0  0  0  0  0  0  0  0  0  0  0  0
   -3.9192    0.0717    9.8917 H   0  0  0  0  0  0  0  0  0  0  0  0
   -3.1101    1.5910    9.3845 H   0  0  0  0  0  0  0  0  0  0  0  0
   -4.8127    1.2732    8.9331 H   0  0  0  0  0  0  0  0  0  0  0  0
   -5.9691   -2.3574    6.2989 H   0  0  0  0  0  0  0  0  0  0  0  0
   -5.5956   -3.3491    3.4105 H   0  0  0  0  0  0  0  0  0  0  0  0
  -10.6387   -2.6556    9.1061 H   0  0  0  0  0  0  0  0  0  0  0  0
  -11.8246   -3.7111    8.2763 H   0  0  0  0  0  0  0  0  0  0  0  0
  -11.8417   -1.9626    7.9720 H   0  0  0  0  0  0  0  0  0  0  0  0
  -11.9317   -3.8849    3.3594 H   0  0  0  0  0  0  0  0  0  0  0  0
  -12.2413   -2.8070    1.2114 H   0  0  0  0  0  0  0  0  0  0  0  0
  -10.2226   -2.7356   -0.9347 H   0  0  0  0  0  0  0  0  0  0  0  0
  -10.2592   -1.0344   -2.8341 H   0  0  0  0  0  0  0  0  0  0  0  0
  -11.0024   -2.1082   -4.9202 H   0  0  0  0  0  0  0  0  0  0  0  0
   -8.1045   -5.5158   -6.8798 H   0  0  0  0  0  0  0  0  0  0  0  0
   -9.6174   -5.9224   -7.7108 H   0  0  0  0  0  0  0  0  0  0  0  0
   -9.3580   -7.3232   -5.6598 H   0  0  0  0  0  0  0  0  0  0  0  0
  -10.7496   -6.2425   -5.5022 H   0  0  0  0  0  0  0  0  0  0  0  0
   -9.2380   -5.8685   -4.6670 H   0  0  0  0  0  0  0  0  0  0  0  0
   -6.4598   -2.9728   -3.2438 H   0  0  0  0  0  0  0  0  0  0  0  0
   -5.8933    2.5816    0.9218 H   0  0  0  0  0  0  0  0  0  0  0  0
   -4.7940    3.5870    2.8450 H   0  0  0  0  0  0  0  0  0  0  0  0
   -3.2850    4.2000    4.2933 H   0  0  0  0  0  0  0  0  0  0  0  0
   -2.5659    3.8768    5.8784 H   0  0  0  0  0  0  0  0  0  0  0  0
   -1.8421    1.6189    5.1156 H   0  0  0  0  0  0  0  0  0  0  0  0
   -2.5196    1.9319    3.5098 H   0  0  0  0  0  0  0  0  0  0  0  0
   -1.1489    2.8861    4.0902 H   0  0  0  0  0  0  0  0  0  0  0  0
   -7.0863   -0.7454    3.3478 H   0  0  0  0  0  0  0  0  0  0  0  0
   -4.3390    1.0542    0.2366 H   0  0  0  0  0  0  0  0  0  0  0  0
   -2.7379   -0.3137   -4.0329 H   0  0  0  0  0  0  0  0  0  0  0  0
   -1.8460    0.7914   -5.9067 H   0  0  0  0  0  0  0  0  0  0  0  0
   -2.5048   -0.5913   -7.7907 H   0  0  0  0  0  0  0  0  0  0  0  0
   -3.3137   -1.8205   -9.3329 H   0  0  0  0  0  0  0  0  0  0  0  0
   -3.4163   -3.4904   -9.9049 H   0  0  0  0  0  0  0  0  0  0  0  0
   -3.7091   -2.6727   -6.9618 H   0  0  0  0  0  0  0  0  0  0  0  0
   -5.0531   -3.0657   -8.0364 H   0  0  0  0  0  0  0  0  0  0  0  0
   -3.8703   -4.3054   -7.6126 H   0  0  0  0  0  0  0  0  0  0  0  0
    1.3837   -1.8928   -5.0566 H   0  0  0  0  0  0  0  0  0  0  0  0
    2.6016    1.2249    0.0838 H   0  0  0  0  0  0  0  0  0  0  0  0
    3.1106    2.3289    2.1841 H   0  0  0  0  0  0  0  0  0  0  0  0
    3.7603    5.0394    4.6750 H   0  0  0  0  0  0  0  0  0  0  0  0
    3.9553    3.5497    3.7351 H   0  0  0  0  0  0  0  0  0  0  0  0
    3.9496    4.9210    1.6179 H   0  0  0  0  0  0  0  0  0  0  0  0
    5.2721    5.3777    2.6913 H   0  0  0  0  0  0  0  0  0  0  0  0
    3.8225    6.3921    2.5906 H   0  0  0  0  0  0  0  0  0  0  0  0
   -0.7322    3.8474   -0.4982 H   0  0  0  0  0  0  0  0  0  0  0  0
    3.4755    2.2644   -1.6354 H   0  0  0  0  0  0  0  0  0  0  0  0
    5.8084    0.5525   -5.4207 H   0  0  0  0  0  0  0  0  0  0  0  0
    7.1801   -1.4664   -5.6404 H   0  0  0  0  0  0  0  0  0  0  0  0
    6.9842   -2.3117   -7.9048 H   0  0  0  0  0  0  0  0  0  0  0  0
    6.8909   -2.9146  -11.5351 H   0  0  0  0  0  0  0  0  0  0  0  0
    6.9304   -3.2678   -9.8031 H   0  0  0  0  0  0  0  0  0  0  0  0
    5.4363   -1.2397   -9.4171 H   0  0  0  0  0  0  0  0  0  0  0  0
    5.4043   -0.9720  -11.1601 H   0  0  0  0  0  0  0  0  0  0  0  0
    4.6657   -2.4251  -10.4757 H   0  0  0  0  0  0  0  0  0  0  0  0
    9.9020    1.5558   -6.9880 H   0  0  0  0  0  0  0  0  0  0  0  0
   10.1752   -0.0951   -0.1909 H   0  0  0  0  0  0  0  0  0  0  0  0
    9.9943   -0.0600    2.2235 H   0  0  0  0  0  0  0  0  0  0  0  0
   10.2674    0.3948    4.3223 H   0  0  0  0  0  0  0  0  0  0  0  0
    9.2962    0.5359    5.7936 H   0  0  0  0  0  0  0  0  0  0  0  0
    8.5486   -1.3199    3.4683 H   0  0  0  0  0  0  0  0  0  0  0  0
    9.3774   -1.8438    4.9396 H   0  0  0  0  0  0  0  0  0  0  0  0
    7.7365   -1.1987    5.0260 H   0  0  0  0  0  0  0  0  0  0  0  0
    7.4631    3.2118   -0.4531 H   0  0  0  0  0  0  0  0  0  0  0  0
   11.6234    1.5259   -1.3467 H   0  0  0  0  0  0  0  0  0  0  0  0
   13.2603    0.9536   -3.2919 H   0  0  0  0  0  0  0  0  0  0  0  0
  1  2  2  0  0  0  0
  2  3  1  0  0  0  0
  3  4  2  0  0  0  0
  4  5  1  0  0  0  0
  5  6  2  0  0  0  0
  6  7  1  0  0  0  0
  7  8  2  0  0  0  0
  8  9  1  0  0  0  0
  9 10  1  0  0  0  0
 10 11  1  0  0  0  0
  8 12  1  0  0  0  0
 12 13  1  0  0  0  0
 12 14  2  0  0  0  0
  4 15  1  0  0  0  0
 15 16  2  0  0  0  0
 16 17  1  0  0  0  0
 17 18  1  0  0  0  0
 18 19  2  0  0  0  0
 19 20  1  0  0  0  0
 20 21  2  0  0  0  0
 21 22  1  0  0  0  0
 22 23  1  0  0  0  0
 23 24  1  0  0  0  0
 21 25  1  0  0  0  0
 25 26  2  0  0  0  0
 25 27  1  0  0  0  0
 17 28  2  0  0  0  0
 28 29  1  0  0  0  0
 16 30  1  0  0  0  0
 30 31  2  0  0  0  0
 31 32  1  0  0  0  0
 31 33  1  0  0  0  0
 33 34  1  0  0  0  0
 34 35  1  0  0  0  0
 35 36  2  0  0  0  0
 36 37  1  0  0  0  0
 36 38  1  0  0  0  0
 38 39  2  0  0  0  0
 38 40  1  0  0  0  0
 40 41  1  0  0  0  0
 35 42  1  0  0  0  0
 42 43  2  0  0  0  0
 43 44  1  0  0  0  0
 44 45  1  0  0  0  0
 45 46  1  0  0  0  0
 46 47  2  0  0  0  0
 47 48  1  0  0  0  0
 47 49  1  0  0  0  0
 49 50  2  0  0  0  0
 49 51  1  0  0  0  0
 51 52  1  0  0  0  0
 46 53  1  0  0  0  0
 53 54  2  0  0  0  0
 54 55  1  0  0  0  0
 55 56  2  0  0  0  0
 56 57  1  0  0  0  0
 57 58  2  0  0  0  0
 58 59  1  0  0  0  0
 59 60  2  0  0  0  0
 60 61  1  0  0  0  0
 61 62  2  0  0  0  0
 62 63  1  0  0  0  0
 63 64  1  0  0  0  0
 64 65  1  0  0  0  0
 62 66  1  0  0  0  0
 66 67  1  0  0  0  0
 66 68  2  0  0  0  0
 58 69  1  0  0  0  0
 69 70  2  0  0  0  0
 70 71  1  0  0  0  0
 71 72  1  0  0  0  0
 72 73  2  0  0  0  0
 73 74  1  0  0  0  0
 74 75  2  0  0  0  0
 75 76  1  0  0  0  0
 76 77  1  0  0  0  0
 77 78  1  0  0  0  0
 75 79  1  0  0  0  0
 79 80  2  0  0  0  0
 79 81  1  0  0  0  0
 71 82  2  0  0  0  0
 82 83  1  0  0  0  0
 70 84  1  0  0  0  0
 84 85  2  0  0  0  0
 85 86  1  0  0  0  0
 85 87  1  0  0  0  0
 87 88  2  0  0  0  0
 88 89  1  0  0  0  0
 89 90  2  0  0  0  0
 90 91  1  0  0  0  0
 91 92  2  0  0  0  0
 92 93  1  0  0  0  0
 93 94  2  0  0  0  0
 94 95  1  0  0  0  0
 95 96  1  0  0  0  0
 96 97  1  0  0  0  0
 94 98  1  0  0  0  0
 98 99  1  0  0  0  0
 98100  2  0  0  0  0
 90101  1  0  0  0  0
101102  2  0  0  0  0
102103  1  0  0  0  0
103104  1  0  0  0  0
104105  2  0  0  0  0
105106  1  0  0  0  0
106107  2  0  0  0  0
107108  1  0  0  0  0
108109  1  0  0  0  0
109110  1  0  0  0  0
107111  1  0  0  0  0
111112  2  0  0  0  0
111113  1  0  0  0  0
103114  2  0  0  0  0
114115  1  0  0  0  0
102116  1  0  0  0  0
116117  2  0  0  0  0
117118  1  0  0  0  0
117119  1  0  0  0  0
119120  2  0  0  0  0
120121  1  0  0  0  0
121122  2  0  0  0  0
122123  1  0  0  0  0
123124  2  0  0  0  0
124125  1  0  0  0  0
125126  2  0  0  0  0
126127  1  0  0  0  0
127128  1  0  0  0  0
128129  1  0  0  0  0
126130  1  0  0  0  0
130131  1  0  0  0  0
130132  2  0  0  0  0
122133  1  0  0  0  0
133134  2  0  0  0  0
134135  1  0  0  0  0
135136  1  0  0  0  0
136137  2  0  0  0  0
137138  1  0  0  0  0
138139  2  0  0  0  0
139140  1  0  0  0  0
140141  1  0  0  0  0
141142  1  0  0  0  0
139143  1  0  0  0  0
143144  2  0  0  0  0
143145  1  0  0  0  0
135146  2  0  0  0  0
146147  1  0  0  0  0
134148  1  0  0  0  0
148149  2  0  0  0  0
149150  1  0  0  0  0
 29  1  1  0  0  0  0
 37 33  2  0  0  0  0
 48 44  2  0  0  0  0
 83 55  1  0  0  0  0
115 87  1  0  0  0  0
147119  1  0  0  0  0
 28  3  1  0  0  0  0
 82 57  1  0  0  0  0
114 89  1  0  0  0  0
146121  1  0  0  0  0
 14  5  1  0  0  0  0
 32 15  1  0  0  0  0
 68 59  1  0  0  0  0
 86 69  1  0  0  0  0
100 91  1  0  0  0  0
118101  1  0  0  0  0
132123  1  0  0  0  0
150133  1  0  0  0  0
 26 18  1  0  0  0  0
 80 72  1  0  0  0  0
112104  1  0  0  0  0
144136  1  0  0  0  0
  1151  1  0  0  0  0
  2152  1  0  0  0  0
  6153  1  0  0  0  0
  7154  1  0  0  0  0
 10155  1  0  0  0  0
 10156  1  0  0  0  0
 11157  1  0  0  0  0
 11158  1  0  0  0  0
 11159  1  0  0  0  0
 14160  1  0  0  0  0
 19161  1  0  0  0  0
 20162  1  0  0  0  0
 23163  1  0  0  0  0
 23164  1  0  0  0  0
 24165  1  0  0  0  0
 24166  1  0  0  0  0
 24167  1  0  0  0  0
 26168  1  0  0  0  0
 30169  1  0  0  0  0
 41170  1  0  0  0  0
 41171  1  0  0  0  0
 41172  1  0  0  0  0
 42173  1  0  0  0  0
 43174  1  0  0  0  0
 52175  1  0  0  0  0
 52176  1  0  0  0  0
 52177  1  0  0  0  0
 53178  1  0  0  0  0
 54179  1  0  0  0  0
 56180  1  0  0  0  0
 60181  1  0  0  0  0
 61182  1  0  0  0  0
 64183  1  0  0  0  0
 64184  1  0  0  0  0
 65185  1  0  0  0  0
 65186  1  0  0  0  0
 65187  1  0  0  0  0
 68188  1  0  0  0  0
 73189  1  0  0  0  0
 74190  1  0  0  0  0
 77191  1  0  0  0  0
 77192  1  0  0  0  0
 78193  1  0  0  0  0
 78194  1  0  0  0  0
 78195  1  0  0  0  0
 80196  1  0  0  0  0
 84197  1  0  0  0  0
 88198  1  0  0  0  0
 92199  1  0  0  0  0
 93200  1  0  0  0  0
 96201  1  0  0  0  0
 96202  1  0  0  0  0
 97203  1  0  0  0  0
 97204  1  0  0  0  0
 97205  1  0  0  0  0
100206  1  0  0  0  0
105207  1  0  0  0  0
106208  1  0  0  0  0
109209  1  0  0  0  0
109210  1  0  0  0  0
110211  1  0  0  0  0
110212  1  0  0  0  0
110213  1  0  0  0  0
112214  1  0  0  0  0
116215  1  0  0  0  0
120216  1  0  0  0  0
124217  1  0  0  0  0
125218  1  0  0  0  0
128219  1  0  0  0  0
128220  1  0  0  0  0
129221  1  0  0  0  0
129222  1  0  0  0  0
129223  1  0  0  0  0
132224  1  0  0  0  0
137225  1  0  0  0  0
138226  1  0  0  0  0
141227  1  0  0  0  0
141228  1  0  0  0  0
142229  1  0  0  0  0
142230  1  0  0  0  0
142231  1  0  0  0  0
144232  1  0  0  0  0
148233  1  0  0  0  0
149234  1  0  0  0  0
M  END
